ELMER SOLVER (v 9.0) STARTED AT: 2024/08/23 07:35:06
ParCommInit:  Initialize #PEs:            1
MAIN: 
MAIN: =============================================================
MAIN: ElmerSolver finite element software, Welcome!
MAIN: This program is free software licensed under (L)GPL
MAIN: Copyright 1st April 1995 - , CSC - IT Center for Science Ltd.
MAIN: Webpage http://www.csc.fi/elmer, Email elmeradm@csc.fi
MAIN: Version: 9.0 (Rev: 14ca23078, Compiled: 2024-07-24)
MAIN:  Running one task without MPI parallelization.
MAIN:  Running with just one thread per task.
MAIN:  MUMPS library linked in.
MAIN:  Lua interpreter linked in.
MAIN: =============================================================
MAIN: 
MAIN: 
MAIN: -------------------------------------
MAIN: Reading Model: case.sif
LoadInputFile: Scanning input file: case.sif
LoadInputFile: Scanning only size info
LoadInputFile: First time visiting
LoadInputFile: Reading base load of sif file
LoadInputFile: Loading input file: case.sif
LoadInputFile: Reading base load of sif file
CheckKeyword:  Unlisted keyword: [maskname] in section: [simulation]
CheckKeyword:  Unlisted keyword: [participantname] in section: [simulation]
CheckKeyword:  Unlisted keyword: [meshname] in section: [simulation]
CheckKeyword:  Unlisted keyword: [configpath] in section: [simulation]
CheckKeyword:  Unlisted keyword: [calculate flux abs] in section: [solver 2]
CheckKeyword:  Unlisted keyword: [readdataname] in section: [solver 3]
CheckKeyword:  Unlisted keyword: [writedataname] in section: [solver 3]
CheckKeyword:  Unlisted keyword: [readdataname] in section: [solver 4]
CheckKeyword:  Unlisted keyword: [writedataname] in section: [solver 4]
CheckKeyword:  Unlisted keyword: [readdataname] in section: [solver 5]
CheckKeyword:  Unlisted keyword: [writedataname] in section: [solver 5]
CheckKeyword:  Unlisted keyword: [readdataname] in section: [solver 6]
CheckKeyword:  Unlisted keyword: [writedataname] in section: [solver 6]
CheckKeyword:  Unlisted keyword: [coupler interface] in section: [boundary condition 3]
LoadInputFile: Number of BCs: 3
LoadInputFile: Number of Body Forces: 0
LoadInputFile: Number of Initial Conditions: 1
LoadInputFile: Number of Materials: 1
LoadInputFile: Number of Equations: 1
LoadInputFile: Number of Solvers: 6
LoadInputFile: Number of Bodies: 1
ListTagKeywords: Setting weight for keywords!
ListTagKeywords: No parameters width suffix: normalize by area
ListTagKeywords: Setting weight for keywords!
ListTagKeywords: No parameters width suffix: normalize by volume
ElmerAsciiMesh: Base mesh name: ./Solid_Participant_Mesh
ReadTargetNames: Reading names info from file: ./Solid_Participant_Mesh/mesh.names
ReadTargetNames: Mapped 3 body names to indexes
ReadTargetNames: Mapped 1 bc names to indexes
LoadMesh: Elapsed REAL time:     0.0006 (s)
MAIN: -------------------------------------
AddVtuOutputSolverHack: Adding ResultOutputSolver to write VTU output in file: solid
OptimizeBandwidth: Initial bandwidth for heat equation: 90
OptimizeBandwidth: Optimized bandwidth for heat equation: 11
FluxSolver_init: Saving flux to: temperature Flux
FluxSolver_init: Saving flux abs to: temperature Flux_abs
OptimizeBandwidth: Initial bandwidth for flux compute: 90
OptimizeBandwidth: Optimized bandwidth for flux compute: 11
MAIN: Number of timesteps to be saved: 10
CouplerSolver: Initializing Coupler Solver
 coupler interface Solid Solid-Mesh ../precice-config.xml
CouplerSolver: Number of nodes at interface:10
CouplerSolver: Created nodes at interface
CouplerSolver: Using existing variable : temperature
CouplerSolver: Using existing variable : temperature flux_abs
CouplerSolver: Initializing preCICE
---[precice] [0m This is preCICE version 3.1.2
---[precice] [0m Revision info: no-info [git failed to run]
---[precice] [0m Build type: Release (without debug log)
---[precice] [0m Configuring preCICE with configuration "../precice-config.xml"
---[precice] [0m I am participant "Solid"
CouplerSolver: Setting up mesh in preCICE
 ------------------------------vertexIDs:            0           1           2           3           4           5           6           7           8           9
 No initial data required
---[precice] [0m Setting up primary communication to coupling partner/s
