/*---------------------------------------------------------------------------*\
| =========                 |                                                 |
| \\      /  F ield         | OpenFOAM: The Open Source CFD Toolbox           |
|  \\    /   O peration     | Version:  2312                                  |
|   \\  /    A nd           | Website:  www.openfoam.com                      |
|    \\/     M anipulation  |                                                 |
\*---------------------------------------------------------------------------*/
Build  : _e651d635-20240208 OPENFOAM=2312 patch=240220 version=2312
Arch   : "LSB;label=32;scalar=64"
Exec   : buoyantSimpleFoam
Date   : Jul 31 2024
Time   : 11:20:37
Host   : Espoo
PID    : 8160
I/O    : uncollated
Case   : /home/asepahvand/repo/elmer-adapter/Flow_Over_Heated_Plate_SS/Fluid-openfoam-turbulent_uncoupled
nProcs : 1
trapFpe: Floating point exception trapping enabled (FOAM_SIGFPE).
fileModificationChecking : Monitoring run-time modified files using timeStampMaster (fileModificationSkew 5, maxFileModificationPolls 20)
allowSystemOperations : Allowing user-supplied system call operations

// * * * * * * * * * * * * * * * * * * * * * * * * * * * * * * * * * * * * * //
Create time

Create mesh for time = 0


SIMPLE: convergence criteria
    field p_rgh	 tolerance 0.001
    field U	 tolerance 0.0001
    field h	 tolerance 0.0001
    field "(k|epsilon|omega)"	 tolerance 0.005

Reading thermophysical properties

Selecting thermodynamics package
{
    type            heRhoThermo;
    mixture         pureMixture;
    transport       const;
    thermo          hConst;
    equationOfState perfectGas;
    specie          specie;
    energy          sensibleEnthalpy;
}

Reading field U

Reading/calculating face flux field phi

Creating turbulence model

Selecting turbulence model type RAS
Selecting RAS turbulence model kEpsilon
bounding k, min: 0 max: 0 average: 0
RAS
{
    RASModel        kEpsilon;
    turbulence      on;
    printCoeffs     on;
    Cmu             0.09;
    C1              1.44;
    C2              1.92;
    C3              0;
    sigmak          1;
    sigmaEps        1.3;
}


Reading g

Reading hRef
Calculating field g.h

Reading field p_rgh

No MRF models present

Radiation model not active: radiationProperties not found
Selecting radiationModel none
No finite volume options present

Starting time loop

Time = 1

DILUPBiCGStab:  Solving for h, Initial residual = 0.0002178044, Final residual = 1.659617e-06, No Iterations 1
GAMG:  Solving for p_rgh, Initial residual = 0.9521238, Final residual = 0.004541214, No Iterations 4
time step continuity errors : sum local = 0.08735349, global = -0.02052023, cumulative = -0.02052023
rho min/max : 1.201664 1.201664
DILUPBiCGStab:  Solving for epsilon, Initial residual = 1, Final residual = 1.350748e-16, No Iterations 1
DILUPBiCGStab:  Solving for k, Initial residual = 1, Final residual = 1.346031e-16, No Iterations 1
bounding k, min: 0 max: 7e-16 average: 7e-16
ExecutionTime = 0.35 s  ClockTime = 0 s

Time = 2

DILUPBiCGStab:  Solving for h, Initial residual = 1, Final residual = 0.00558488, No Iterations 1
GAMG:  Solving for p_rgh, Initial residual = 0.8783374, Final residual = 0.00415178, No Iterations 4
time step continuity errors : sum local = 0.04511577, global = -0.009161948, cumulative = -0.02968217
rho min/max : 1.201565 1.201746
DILUPBiCGStab:  Solving for epsilon, Initial residual = 1, Final residual = 2.055146e-16, No Iterations 1
DILUPBiCGStab:  Solving for k, Initial residual = 1, Final residual = 1.333544e-16, No Iterations 1
bounding k, min: 0 max: 7e-16 average: 7e-16
ExecutionTime = 0.45 s  ClockTime = 0 s

Time = 3

DILUPBiCGStab:  Solving for h, Initial residual = 0.1946789, Final residual = 0.0006129423, No Iterations 1
GAMG:  Solving for p_rgh, Initial residual = 0.6855866, Final residual = 0.003721963, No Iterations 4
time step continuity errors : sum local = 0.01529191, global = -0.004965775, cumulative = -0.03464795
rho min/max : 1.201514 1.201693
DILUPBiCGStab:  Solving for epsilon, Initial residual = 1, Final residual = 2.1888e-16, No Iterations 1
DILUPBiCGStab:  Solving for k, Initial residual = 1, Final residual = 2.397585e-16, No Iterations 1
bounding k, min: 0 max: 7e-16 average: 7e-16
ExecutionTime = 0.55 s  ClockTime = 0 s

Time = 4

DILUPBiCGStab:  Solving for h, Initial residual = 0.118167, Final residual = 0.0002031297, No Iterations 1
GAMG:  Solving for p_rgh, Initial residual = 0.5713027, Final residual = 0.004052897, No Iterations 3
time step continuity errors : sum local = 0.01564228, global = 0.000467581, cumulative = -0.03418037
rho min/max : 1.201476 1.201678
DILUPBiCGStab:  Solving for epsilon, Initial residual = 1, Final residual = 2.222613e-16, No Iterations 1
DILUPBiCGStab:  Solving for k, Initial residual = 1, Final residual = 1.336906e-16, No Iterations 1
bounding k, min: 0 max: 7e-16 average: 7e-16
ExecutionTime = 0.64 s  ClockTime = 0 s

Time = 5

DILUPBiCGStab:  Solving for h, Initial residual = 0.06763324, Final residual = 0.0001118438, No Iterations 1
GAMG:  Solving for p_rgh, Initial residual = 0.5616797, Final residual = 0.002412033, No Iterations 4
time step continuity errors : sum local = 0.008373242, global = -0.0003913428, cumulative = -0.03457171
rho min/max : 1.201465 1.201669
DILUPBiCGStab:  Solving for epsilon, Initial residual = 1, Final residual = 1.3782e-16, No Iterations 1
DILUPBiCGStab:  Solving for k, Initial residual = 1, Final residual = 1.875346e-16, No Iterations 1
bounding k, min: 0 max: 7.000001e-16 average: 7e-16
ExecutionTime = 0.73 s  ClockTime = 0 s

Time = 6

DILUPBiCGStab:  Solving for h, Initial residual = 0.05250635, Final residual = 7.893227e-05, No Iterations 1
GAMG:  Solving for p_rgh, Initial residual = 0.543315, Final residual = 0.005207676, No Iterations 3
time step continuity errors : sum local = 0.01210575, global = 0.001761569, cumulative = -0.03281014
rho min/max : 1.201528 1.201662
DILUPBiCGStab:  Solving for epsilon, Initial residual = 0.9999999, Final residual = 1.182678e-16, No Iterations 1
DILUPBiCGStab:  Solving for k, Initial residual = 1, Final residual = 1.483639e-16, No Iterations 1
bounding k, min: 0 max: 7.000001e-16 average: 7e-16
ExecutionTime = 0.82 s  ClockTime = 1 s

Time = 7

DILUPBiCGStab:  Solving for h, Initial residual = 0.04077865, Final residual = 6.980477e-05, No Iterations 1
GAMG:  Solving for p_rgh, Initial residual = 0.4173276, Final residual = 0.002515287, No Iterations 3
time step continuity errors : sum local = 0.004793846, global = 0.001878654, cumulative = -0.03093149
rho min/max : 1.201555 1.201677
DILUPBiCGStab:  Solving for epsilon, Initial residual = 0.9999999, Final residual = 1.460269e-16, No Iterations 1
DILUPBiCGStab:  Solving for k, Initial residual = 1, Final residual = 2.136704e-16, No Iterations 1
bounding k, min: 0 max: 7.000001e-16 average: 7e-16
ExecutionTime = 0.91 s  ClockTime = 1 s

Time = 8

DILUPBiCGStab:  Solving for h, Initial residual = 0.03488872, Final residual = 6.225189e-05, No Iterations 1
GAMG:  Solving for p_rgh, Initial residual = 0.3633354, Final residual = 0.003368394, No Iterations 3
time step continuity errors : sum local = 0.004882945, global = 0.002448497, cumulative = -0.02848299
rho min/max : 1.201558 1.201675
DILUPBiCGStab:  Solving for epsilon, Initial residual = 0.9999998, Final residual = 1.25269e-16, No Iterations 1
DILUPBiCGStab:  Solving for k, Initial residual = 1, Final residual = 2.238791e-16, No Iterations 1
bounding k, min: 0 max: 7.000002e-16 average: 7e-16
ExecutionTime = 0.99 s  ClockTime = 1 s

Time = 9

DILUPBiCGStab:  Solving for h, Initial residual = 0.03033231, Final residual = 5.337247e-05, No Iterations 1
GAMG:  Solving for p_rgh, Initial residual = 0.3559113, Final residual = 0.002349771, No Iterations 3
time step continuity errors : sum local = 0.002252957, global = 0.0007977697, cumulative = -0.02768522
rho min/max : 1.201556 1.201668
DILUPBiCGStab:  Solving for epsilon, Initial residual = 0.9999997, Final residual = 1.637911e-16, No Iterations 1
DILUPBiCGStab:  Solving for k, Initial residual = 1, Final residual = 4.05891e-16, No Iterations 1
bounding k, min: 0 max: 7.000003e-16 average: 7e-16
ExecutionTime = 1.08 s  ClockTime = 1 s

Time = 10

DILUPBiCGStab:  Solving for h, Initial residual = 0.02735773, Final residual = 4.422928e-05, No Iterations 1
GAMG:  Solving for p_rgh, Initial residual = 0.3513848, Final residual = 0.001714272, No Iterations 3
time step continuity errors : sum local = 0.001197266, global = -0.0001141769, cumulative = -0.0277994
rho min/max : 1.201552 1.201665
DILUPBiCGStab:  Solving for epsilon, Initial residual = 0.9999995, Final residual = 1.697907e-16, No Iterations 1
DILUPBiCGStab:  Solving for k, Initial residual = 1, Final residual = 5.79226e-16, No Iterations 1
bounding k, min: 0 max: 7.000004e-16 average: 7e-16
ExecutionTime = 1.54 s  ClockTime = 1 s

Time = 11

DILUPBiCGStab:  Solving for h, Initial residual = 0.02631006, Final residual = 4.574141e-05, No Iterations 1
GAMG:  Solving for p_rgh, Initial residual = 0.3201262, Final residual = 0.001476383, No Iterations 3
time step continuity errors : sum local = 0.0008518087, global = -0.0003456035, cumulative = -0.028145
rho min/max : 1.201552 1.201664
DILUPBiCGStab:  Solving for epsilon, Initial residual = 0.9999991, Final residual = 2.474658e-16, No Iterations 1
DILUPBiCGStab:  Solving for k, Initial residual = 1, Final residual = 1.370844e-15, No Iterations 1
bounding k, min: 0 max: 7.000005e-16 average: 7.000001e-16
ExecutionTime = 1.64 s  ClockTime = 1 s

Time = 12

DILUPBiCGStab:  Solving for h, Initial residual = 0.02551235, Final residual = 4.947402e-05, No Iterations 1
GAMG:  Solving for p_rgh, Initial residual = 0.2686973, Final residual = 0.001267392, No Iterations 3
time step continuity errors : sum local = 0.0006592789, global = -0.0002617356, cumulative = -0.02840674
rho min/max : 1.201553 1.201665
DILUPBiCGStab:  Solving for epsilon, Initial residual = 0.9999985, Final residual = 4.757965e-16, No Iterations 1
DILUPBiCGStab:  Solving for k, Initial residual = 1, Final residual = 2.298341e-15, No Iterations 1
bounding k, min: 0 max: 7.000007e-16 average: 7.000001e-16
ExecutionTime = 1.74 s  ClockTime = 1 s

Time = 13

DILUPBiCGStab:  Solving for h, Initial residual = 0.02666022, Final residual = 4.37558e-05, No Iterations 1
GAMG:  Solving for p_rgh, Initial residual = 0.2185845, Final residual = 0.001568019, No Iterations 2
time step continuity errors : sum local = 0.0008060652, global = -3.479433e-05, cumulative = -0.02844153
rho min/max : 1.201555 1.201667
DILUPBiCGStab:  Solving for epsilon, Initial residual = 0.9999973, Final residual = 7.578288e-16, No Iterations 1
DILUPBiCGStab:  Solving for k, Initial residual = 1, Final residual = 4.03492e-15, No Iterations 1
bounding k, min: 0 max: 7.000011e-16 average: 7.000001e-16
ExecutionTime = 1.83 s  ClockTime = 2 s

Time = 14

DILUPBiCGStab:  Solving for h, Initial residual = 0.02624717, Final residual = 4.37269e-05, No Iterations 1
GAMG:  Solving for p_rgh, Initial residual = 0.1931076, Final residual = 0.001129708, No Iterations 2
time step continuity errors : sum local = 0.0005587865, global = 1.229777e-05, cumulative = -0.02842923
rho min/max : 1.201556 1.201668
DILUPBiCGStab:  Solving for epsilon, Initial residual = 0.999995, Final residual = 1.309284e-15, No Iterations 1
DILUPBiCGStab:  Solving for k, Initial residual = 1, Final residual = 8.00977e-15, No Iterations 1
bounding k, min: 0 max: 7.000015e-16 average: 7.000002e-16
ExecutionTime = 1.92 s  ClockTime = 2 s

Time = 15

DILUPBiCGStab:  Solving for h, Initial residual = 0.02580499, Final residual = 4.791162e-05, No Iterations 1
GAMG:  Solving for p_rgh, Initial residual = 0.1829347, Final residual = 0.0009105811, No Iterations 3
time step continuity errors : sum local = 0.0004173123, global = 0.0001468536, cumulative = -0.02828238
rho min/max : 1.201557 1.201667
DILUPBiCGStab:  Solving for epsilon, Initial residual = 0.9999906, Final residual = 2.395986e-15, No Iterations 1
DILUPBiCGStab:  Solving for k, Initial residual = 1, Final residual = 1.59691e-14, No Iterations 1
bounding k, min: 0 max: 7.000022e-16 average: 7.000002e-16
ExecutionTime = 2.01 s  ClockTime = 2 s

Time = 16

DILUPBiCGStab:  Solving for h, Initial residual = 0.02593832, Final residual = 4.675112e-05, No Iterations 1
GAMG:  Solving for p_rgh, Initial residual = 0.1813832, Final residual = 0.00176638, No Iterations 2
time step continuity errors : sum local = 0.0007393786, global = -0.0001272073, cumulative = -0.02840959
rho min/max : 1.201557 1.201667
DILUPBiCGStab:  Solving for epsilon, Initial residual = 0.999982, Final residual = 4.754371e-15, No Iterations 1
DILUPBiCGStab:  Solving for k, Initial residual = 1, Final residual = 3.216967e-14, No Iterations 1
bounding k, min: 0 max: 7.000032e-16 average: 7.000003e-16
ExecutionTime = 2.09 s  ClockTime = 2 s

Time = 17

DILUPBiCGStab:  Solving for h, Initial residual = 0.02689317, Final residual = 4.52953e-05, No Iterations 1
GAMG:  Solving for p_rgh, Initial residual = 0.1851871, Final residual = 0.001383143, No Iterations 2
time step continuity errors : sum local = 0.000531072, global = -8.962212e-05, cumulative = -0.02849921
rho min/max : 1.201558 1.201666
DILUPBiCGStab:  Solving for epsilon, Initial residual = 0.9999648, Final residual = 9.80982e-15, No Iterations 1
DILUPBiCGStab:  Solving for k, Initial residual = 1, Final residual = 6.434789e-14, No Iterations 1
bounding k, min: 0 max: 7.000045e-16 average: 7.000005e-16
ExecutionTime = 2.17 s  ClockTime = 2 s

Time = 18

DILUPBiCGStab:  Solving for h, Initial residual = 0.02703017, Final residual = 4.08845e-05, No Iterations 1
GAMG:  Solving for p_rgh, Initial residual = 0.1807999, Final residual = 0.0007089603, No Iterations 2
time step continuity errors : sum local = 0.0002538245, global = -2.298899e-05, cumulative = -0.0285222
rho min/max : 1.201559 1.201666
DILUPBiCGStab:  Solving for epsilon, Initial residual = 0.9999307, Final residual = 1.973039e-14, No Iterations 1
DILUPBiCGStab:  Solving for k, Initial residual = 1, Final residual = 1.294383e-13, No Iterations 1
bounding k, min: 0 max: 7.000064e-16 average: 7.000007e-16
ExecutionTime = 2.26 s  ClockTime = 2 s

Time = 19

DILUPBiCGStab:  Solving for h, Initial residual = 0.02630301, Final residual = 4.615944e-05, No Iterations 1
GAMG:  Solving for p_rgh, Initial residual = 0.1728622, Final residual = 0.0006004698, No Iterations 2
time step continuity errors : sum local = 0.0002114353, global = 2.472375e-05, cumulative = -0.02849748
rho min/max : 1.201559 1.201666
DILUPBiCGStab:  Solving for epsilon, Initial residual = 0.9998623, Final residual = 3.928748e-14, No Iterations 1
DILUPBiCGStab:  Solving for k, Initial residual = 1, Final residual = 2.6089e-13, No Iterations 1
bounding k, min: 0 max: 7.000092e-16 average: 7.00001e-16
ExecutionTime = 2.34 s  ClockTime = 2 s

Time = 20

DILUPBiCGStab:  Solving for h, Initial residual = 0.02592579, Final residual = 4.27484e-05, No Iterations 1
GAMG:  Solving for p_rgh, Initial residual = 0.1644816, Final residual = 0.0008641402, No Iterations 2
time step continuity errors : sum local = 0.0003013432, global = -5.679867e-06, cumulative = -0.02850316
rho min/max : 1.201559 1.201666
DILUPBiCGStab:  Solving for epsilon, Initial residual = 0.9997245, Final residual = 8.000918e-14, No Iterations 1
DILUPBiCGStab:  Solving for k, Initial residual = 1, Final residual = 5.255456e-13, No Iterations 1
bounding k, min: 0 max: 7.000132e-16 average: 7.000014e-16
ExecutionTime = 2.82 s  ClockTime = 3 s

Time = 21

DILUPBiCGStab:  Solving for h, Initial residual = 0.02447575, Final residual = 3.917264e-05, No Iterations 1
GAMG:  Solving for p_rgh, Initial residual = 0.157025, Final residual = 0.0008596965, No Iterations 2
time step continuity errors : sum local = 0.0002968334, global = -4.5227e-05, cumulative = -0.02854838
rho min/max : 1.20156 1.201666
DILUPBiCGStab:  Solving for epsilon, Initial residual = 0.9994458, Final residual = 1.61354e-13, No Iterations 1
DILUPBiCGStab:  Solving for k, Initial residual = 1, Final residual = 1.0578e-12, No Iterations 1
bounding k, min: 0 max: 7.000188e-16 average: 7.00002e-16
ExecutionTime = 2.91 s  ClockTime = 3 s

Time = 22

DILUPBiCGStab:  Solving for h, Initial residual = 0.02491773, Final residual = 3.913214e-05, No Iterations 1
GAMG:  Solving for p_rgh, Initial residual = 0.1551128, Final residual = 0.0007954687, No Iterations 2
time step continuity errors : sum local = 0.000269007, global = -5.595171e-05, cumulative = -0.02860433
rho min/max : 1.20156 1.201666
DILUPBiCGStab:  Solving for epsilon, Initial residual = 0.998882, Final residual = 3.276225e-13, No Iterations 1
DILUPBiCGStab:  Solving for k, Initial residual = 1, Final residual = 2.13963e-12, No Iterations 1
bounding k, min: 0 max: 7.000269e-16 average: 7.000029e-16
ExecutionTime = 2.99 s  ClockTime = 3 s

Time = 23

DILUPBiCGStab:  Solving for h, Initial residual = 0.024015, Final residual = 3.830232e-05, No Iterations 1
GAMG:  Solving for p_rgh, Initial residual = 0.1473783, Final residual = 0.0006234081, No Iterations 2
time step continuity errors : sum local = 0.000208775, global = -5.579955e-05, cumulative = -0.02866013
rho min/max : 1.201563 1.201666
DILUPBiCGStab:  Solving for epsilon, Initial residual = 0.9977434, Final residual = 6.62543e-13, No Iterations 1
DILUPBiCGStab:  Solving for k, Initial residual = 1, Final residual = 4.323814e-12, No Iterations 1
bounding k, min: 0 max: 7.000384e-16 average: 7.000042e-16
ExecutionTime = 3.07 s  ClockTime = 3 s

Time = 24

DILUPBiCGStab:  Solving for h, Initial residual = 0.0246994, Final residual = 3.89447e-05, No Iterations 1
GAMG:  Solving for p_rgh, Initial residual = 0.1393347, Final residual = 0.000438115, No Iterations 2
time step continuity errors : sum local = 0.0001456723, global = -5.409778e-05, cumulative = -0.02871423
rho min/max : 1.201566 1.201666
DILUPBiCGStab:  Solving for epsilon, Initial residual = 0.9954548, Final residual = 1.329726e-12, No Iterations 1
DILUPBiCGStab:  Solving for k, Initial residual = 1, Final residual = 8.744787e-12, No Iterations 1
bounding k, min: 0 max: 7.000549e-16 average: 7.00006e-16
ExecutionTime = 3.15 s  ClockTime = 3 s

Time = 25

DILUPBiCGStab:  Solving for h, Initial residual = 0.02436472, Final residual = 4.187207e-05, No Iterations 1
GAMG:  Solving for p_rgh, Initial residual = 0.140168, Final residual = 0.0003413415, No Iterations 2
time step continuity errors : sum local = 0.0001166176, global = 5.402736e-07, cumulative = -0.02871369
rho min/max : 1.201568 1.201666
DILUPBiCGStab:  Solving for epsilon, Initial residual = 0.9909149, Final residual = 2.665057e-12, No Iterations 1
DILUPBiCGStab:  Solving for k, Initial residual = 1, Final residual = 1.768051e-11, No Iterations 1
bounding k, min: 0 max: 7.000785e-16 average: 7.000085e-16
ExecutionTime = 3.24 s  ClockTime = 3 s

Time = 26

DILUPBiCGStab:  Solving for h, Initial residual = 0.02423818, Final residual = 3.818647e-05, No Iterations 1
GAMG:  Solving for p_rgh, Initial residual = 0.1341576, Final residual = 0.0002905204, No Iterations 2
time step continuity errors : sum local = 9.991512e-05, global = 2.409224e-05, cumulative = -0.0286896
rho min/max : 1.20157 1.201666
DILUPBiCGStab:  Solving for epsilon, Initial residual = 0.9820919, Final residual = 5.317251e-12, No Iterations 1
DILUPBiCGStab:  Solving for k, Initial residual = 1, Final residual = 3.57157e-11, No Iterations 1
bounding k, min: 0 max: 7.001122e-16 average: 7.000121e-16
ExecutionTime = 3.34 s  ClockTime = 3 s

Time = 27

DILUPBiCGStab:  Solving for h, Initial residual = 0.02279622, Final residual = 3.8891e-05, No Iterations 1
GAMG:  Solving for p_rgh, Initial residual = 0.1352706, Final residual = 0.0003229395, No Iterations 2
time step continuity errors : sum local = 0.0001014502, global = 3.429797e-06, cumulative = -0.02868617
rho min/max : 1.201571 1.201666
DILUPBiCGStab:  Solving for epsilon, Initial residual = 0.9643265, Final residual = 1.049757e-11, No Iterations 1
bounding epsilon, min: -1.590722e-11 max: 1e-06 average: 6.623656e-11
DILUPBiCGStab:  Solving for k, Initial residual = 1, Final residual = 1.995786e-11, No Iterations 1
bounding k, min: 0 max: 7.004512e-16 average: 7.000173e-16
ExecutionTime = 3.41 s  ClockTime = 3 s

Time = 28

DILUPBiCGStab:  Solving for h, Initial residual = 0.02237692, Final residual = 4.026875e-05, No Iterations 1
GAMG:  Solving for p_rgh, Initial residual = 0.1283117, Final residual = 0.0004531828, No Iterations 2
time step continuity errors : sum local = 0.0001419344, global = -1.859943e-06, cumulative = -0.02868803
rho min/max : 1.201572 1.201666
DILUPBiCGStab:  Solving for epsilon, Initial residual = 0.1765314, Final residual = 3.566879e-16, No Iterations 1
bounding epsilon, min: -3.845897e-10 max: 1e-06 average: 6.097759e-11
DILUPBiCGStab:  Solving for k, Initial residual = 1, Final residual = 6.49552e-12, No Iterations 1
bounding k, min: 0 max: 7.006607e-16 average: 7.000245e-16
ExecutionTime = 3.5 s  ClockTime = 3 s

Time = 29

DILUPBiCGStab:  Solving for h, Initial residual = 0.02167995, Final residual = 4.774301e-05, No Iterations 1
GAMG:  Solving for p_rgh, Initial residual = 0.1268778, Final residual = 0.0003678753, No Iterations 2
time step continuity errors : sum local = 0.0001133777, global = -1.180624e-05, cumulative = -0.02869983
rho min/max : 1.201573 1.201666
DILUPBiCGStab:  Solving for epsilon, Initial residual = 0.1766264, Final residual = 1.525872e-16, No Iterations 1
bounding epsilon, min: -3.418588e-10 max: 1e-06 average: 1.266075e-10
DILUPBiCGStab:  Solving for k, Initial residual = 1, Final residual = 1.088665e-11, No Iterations 1
bounding k, min: 0 max: 7.00327e-16 average: 7.000348e-16
ExecutionTime = 3.58 s  ClockTime = 3 s

Time = 30

DILUPBiCGStab:  Solving for h, Initial residual = 0.02066594, Final residual = 3.57692e-05, No Iterations 1
GAMG:  Solving for p_rgh, Initial residual = 0.1223993, Final residual = 0.001184726, No Iterations 1
time step continuity errors : sum local = 0.0003529424, global = 1.325437e-05, cumulative = -0.02868658
rho min/max : 1.201574 1.201666
DILUPBiCGStab:  Solving for epsilon, Initial residual = 0.1766625, Final residual = 2.268826e-16, No Iterations 1
bounding epsilon, min: -1.402929e-10 max: 1e-06 average: 1.096076e-10
DILUPBiCGStab:  Solving for k, Initial residual = 1, Final residual = 2.004528e-11, No Iterations 1
bounding k, min: 0 max: 7.940081e-16 average: 7.000514e-16
ExecutionTime = 4.07 s  ClockTime = 4 s

Time = 31

DILUPBiCGStab:  Solving for h, Initial residual = 0.02101788, Final residual = 3.455601e-05, No Iterations 1
GAMG:  Solving for p_rgh, Initial residual = 0.1221013, Final residual = 0.0003372331, No Iterations 2
time step continuity errors : sum local = 9.896132e-05, global = -3.764922e-05, cumulative = -0.02872423
rho min/max : 1.201575 1.201666
DILUPBiCGStab:  Solving for epsilon, Initial residual = 0.1766886, Final residual = 4.417433e-16, No Iterations 1
bounding epsilon, min: -9.017696e-10 max: 1e-06 average: 8.911319e-11
DILUPBiCGStab:  Solving for k, Initial residual = 1, Final residual = 3.796539e-11, No Iterations 1
bounding k, min: 0 max: 7.006661e-16 average: 7.000703e-16
ExecutionTime = 4.16 s  ClockTime = 4 s

Time = 32

DILUPBiCGStab:  Solving for h, Initial residual = 0.01990525, Final residual = 3.519928e-05, No Iterations 1
GAMG:  Solving for p_rgh, Initial residual = 0.1205173, Final residual = 0.0003006784, No Iterations 2
time step continuity errors : sum local = 8.820135e-05, global = -2.510383e-05, cumulative = -0.02874933
rho min/max : 1.201577 1.201666
DILUPBiCGStab:  Solving for epsilon, Initial residual = 0.1767002, Final residual = 5.951543e-16, No Iterations 1
bounding epsilon, min: -1.530414e-11 max: 1e-06 average: 6.841333e-11
DILUPBiCGStab:  Solving for k, Initial residual = 1, Final residual = 6.947092e-11, No Iterations 1
bounding k, min: 0 max: 7.009499e-16 average: 7.000999e-16
ExecutionTime = 4.25 s  ClockTime = 4 s

Time = 33

DILUPBiCGStab:  Solving for h, Initial residual = 0.01957635, Final residual = 3.241313e-05, No Iterations 1
GAMG:  Solving for p_rgh, Initial residual = 0.1185366, Final residual = 0.001156872, No Iterations 1
time step continuity errors : sum local = 0.0003339623, global = -3.889113e-05, cumulative = -0.02878822
rho min/max : 1.201577 1.201666
DILUPBiCGStab:  Solving for epsilon, Initial residual = 0.1767081, Final residual = 1.232942e-15, No Iterations 1
bounding epsilon, min: -2.323464e-12 max: 1e-06 average: 5.546974e-11
DILUPBiCGStab:  Solving for k, Initial residual = 1, Final residual = 1.393862e-10, No Iterations 1
bounding k, min: 0 max: 7.013539e-16 average: 7.001421e-16
ExecutionTime = 4.33 s  ClockTime = 4 s

Time = 34

DILUPBiCGStab:  Solving for h, Initial residual = 0.01922661, Final residual = 3.235333e-05, No Iterations 1
GAMG:  Solving for p_rgh, Initial residual = 0.1134156, Final residual = 0.0003549245, No Iterations 2
time step continuity errors : sum local = 0.0001014818, global = -4.592519e-05, cumulative = -0.02883415
rho min/max : 1.201578 1.201666
DILUPBiCGStab:  Solving for epsilon, Initial residual = 0.1767156, Final residual = 2.265004e-15, No Iterations 1
DILUPBiCGStab:  Solving for k, Initial residual = 1, Final residual = 2.816252e-10, No Iterations 1
bounding k, min: 0 max: 7.01928e-16 average: 7.002019e-16
ExecutionTime = 4.42 s  ClockTime = 4 s

Time = 35

DILUPBiCGStab:  Solving for h, Initial residual = 0.01865336, Final residual = 3.113302e-05, No Iterations 1
GAMG:  Solving for p_rgh, Initial residual = 0.1055414, Final residual = 0.0002621585, No Iterations 2
time step continuity errors : sum local = 7.4992e-05, global = -3.607935e-05, cumulative = -0.02887023
rho min/max : 1.201579 1.201666
DILUPBiCGStab:  Solving for epsilon, Initial residual = 0.1767189, Final residual = 5.380242e-15, No Iterations 1
bounding epsilon, min: -3.69051e-11 max: 1e-06 average: 2.87024e-11
DILUPBiCGStab:  Solving for k, Initial residual = 1, Final residual = 5.581916e-10, No Iterations 1
bounding k, min: 0 max: 7.027422e-16 average: 7.002865e-16
ExecutionTime = 4.5 s  ClockTime = 4 s

Time = 36

DILUPBiCGStab:  Solving for h, Initial residual = 0.01802017, Final residual = 3.094882e-05, No Iterations 1
GAMG:  Solving for p_rgh, Initial residual = 0.1083063, Final residual = 0.0009728114, No Iterations 1
time step continuity errors : sum local = 0.0002773612, global = 3.700924e-05, cumulative = -0.02883322
rho min/max : 1.20158 1.201666
DILUPBiCGStab:  Solving for epsilon, Initial residual = 0.1767268, Final residual = 9.438035e-15, No Iterations 1
bounding epsilon, min: -1.049602e-11 max: 1e-06 average: 2.163842e-11
DILUPBiCGStab:  Solving for k, Initial residual = 1, Final residual = 1.008192e-09, No Iterations 1
bounding k, min: 0 max: 7.038929e-16 average: 7.004058e-16
ExecutionTime = 4.58 s  ClockTime = 4 s

Time = 37

DILUPBiCGStab:  Solving for h, Initial residual = 0.01766435, Final residual = 3.002142e-05, No Iterations 1
GAMG:  Solving for p_rgh, Initial residual = 0.1101435, Final residual = 0.0002138409, No Iterations 2
time step continuity errors : sum local = 6.108055e-05, global = 1.513112e-05, cumulative = -0.02881809
rho min/max : 1.20158 1.201666
DILUPBiCGStab:  Solving for epsilon, Initial residual = 0.1766396, Final residual = 1.219262e-14, No Iterations 1
bounding epsilon, min: -1.194486e-11 max: 1e-06 average: 1.763706e-11
DILUPBiCGStab:  Solving for k, Initial residual = 1, Final residual = 1.972753e-09, No Iterations 1
bounding k, min: 0 max: 7.055129e-16 average: 7.005745e-16
ExecutionTime = 4.66 s  ClockTime = 4 s

Time = 38

DILUPBiCGStab:  Solving for h, Initial residual = 0.0176382, Final residual = 2.878271e-05, No Iterations 1
GAMG:  Solving for p_rgh, Initial residual = 0.1105102, Final residual = 0.0002143988, No Iterations 2
time step continuity errors : sum local = 6.165564e-05, global = 1.109994e-05, cumulative = -0.02880699
rho min/max : 1.20158 1.201666
DILUPBiCGStab:  Solving for epsilon, Initial residual = 0.1766466, Final residual = 2.240797e-14, No Iterations 1
bounding epsilon, min: -5.1184e-11 max: 1e-06 average: 1.386923e-11
DILUPBiCGStab:  Solving for k, Initial residual = 1, Final residual = 3.85377e-09, No Iterations 1
bounding k, min: 0 max: 7.077758e-16 average: 7.008128e-16
ExecutionTime = 4.75 s  ClockTime = 4 s

Time = 39

DILUPBiCGStab:  Solving for h, Initial residual = 0.01704305, Final residual = 2.907835e-05, No Iterations 1
GAMG:  Solving for p_rgh, Initial residual = 0.1104313, Final residual = 0.001071736, No Iterations 1
time step continuity errors : sum local = 0.0003046548, global = 9.697712e-05, cumulative = -0.02871001
rho min/max : 1.201581 1.201666
DILUPBiCGStab:  Solving for epsilon, Initial residual = 0.1766539, Final residual = 4.503843e-14, No Iterations 1
bounding epsilon, min: -6.515225e-12 max: 1e-06 average: 1.106528e-11
DILUPBiCGStab:  Solving for k, Initial residual = 1, Final residual = 7.362782e-09, No Iterations 1
bounding k, min: 0 max: 7.109196e-16 average: 7.011491e-16
ExecutionTime = 4.83 s  ClockTime = 5 s

Time = 40

DILUPBiCGStab:  Solving for h, Initial residual = 0.01688907, Final residual = 2.698783e-05, No Iterations 1
GAMG:  Solving for p_rgh, Initial residual = 0.101871, Final residual = 0.0002805867, No Iterations 2
time step continuity errors : sum local = 7.99089e-05, global = 1.193917e-05, cumulative = -0.02869807
rho min/max : 1.201581 1.201666
DILUPBiCGStab:  Solving for epsilon, Initial residual = 0.176646, Final residual = 6.90854e-14, No Iterations 1
bounding epsilon, min: -8.564604e-12 max: 1e-06 average: 9.219349e-12
DILUPBiCGStab:  Solving for k, Initial residual = 1, Final residual = 1.088965e-08, No Iterations 1
bounding k, min: 0 max: 7.152277e-16 average: 7.01622e-16
ExecutionTime = 5.34 s  ClockTime = 5 s

Time = 41

DILUPBiCGStab:  Solving for h, Initial residual = 0.01668646, Final residual = 2.979799e-05, No Iterations 1
GAMG:  Solving for p_rgh, Initial residual = 0.1010461, Final residual = 0.0002105508, No Iterations 2
time step continuity errors : sum local = 5.927368e-05, global = 6.509798e-06, cumulative = -0.02869156
rho min/max : 1.201582 1.201666
DILUPBiCGStab:  Solving for epsilon, Initial residual = 0.1765293, Final residual = 2.77303e-14, No Iterations 1
DILUPBiCGStab:  Solving for k, Initial residual = 1, Final residual = 2.164681e-08, No Iterations 1
bounding k, min: 0 max: 7.210475e-16 average: 7.022823e-16
ExecutionTime = 5.43 s  ClockTime = 5 s

Time = 42

DILUPBiCGStab:  Solving for h, Initial residual = 0.01625071, Final residual = 2.632475e-05, No Iterations 1
GAMG:  Solving for p_rgh, Initial residual = 0.09937289, Final residual = 0.0001800673, No Iterations 2
time step continuity errors : sum local = 5.139438e-05, global = 5.8183e-06, cumulative = -0.02868574
rho min/max : 1.201582 1.201666
DILUPBiCGStab:  Solving for epsilon, Initial residual = 0.1765317, Final residual = 5.199111e-14, No Iterations 1
bounding epsilon, min: -2.110929e-11 max: 1e-06 average: 6.678577e-12
DILUPBiCGStab:  Solving for k, Initial residual = 1, Final residual = 3.701638e-08, No Iterations 1
bounding k, min: 0 max: 7.287519e-16 average: 7.031961e-16
ExecutionTime = 5.51 s  ClockTime = 5 s

Time = 43

DILUPBiCGStab:  Solving for h, Initial residual = 0.01657749, Final residual = 3.011114e-05, No Iterations 1
GAMG:  Solving for p_rgh, Initial residual = 0.09972716, Final residual = 0.0001684246, No Iterations 2
time step continuity errors : sum local = 4.782614e-05, global = 1.040988e-05, cumulative = -0.02867533
rho min/max : 1.201583 1.201666
DILUPBiCGStab:  Solving for epsilon, Initial residual = 0.1765412, Final residual = 8.945655e-14, No Iterations 1
DILUPBiCGStab:  Solving for k, Initial residual = 1, Final residual = 7.252773e-08, No Iterations 1
bounding k, min: 0 max: 7.386741e-16 average: 7.044476e-16
ExecutionTime = 5.59 s  ClockTime = 5 s

Time = 44

DILUPBiCGStab:  Solving for h, Initial residual = 0.01591073, Final residual = 2.732244e-05, No Iterations 1
GAMG:  Solving for p_rgh, Initial residual = 0.09869921, Final residual = 0.0001690983, No Iterations 2
time step continuity errors : sum local = 4.836649e-05, global = 1.400851e-05, cumulative = -0.02866133
rho min/max : 1.201583 1.201666
DILUPBiCGStab:  Solving for epsilon, Initial residual = 0.1765431, Final residual = 1.309854e-13, No Iterations 1
bounding epsilon, min: -3.026955e-11 max: 1e-06 average: 5.330531e-12
DILUPBiCGStab:  Solving for k, Initial residual = 1, Final residual = 9.089166e-08, No Iterations 1
bounding k, min: 0 max: 7.509949e-16 average: 7.061441e-16
ExecutionTime = 5.67 s  ClockTime = 5 s

Time = 45

DILUPBiCGStab:  Solving for h, Initial residual = 0.01642974, Final residual = 3.083044e-05, No Iterations 1
GAMG:  Solving for p_rgh, Initial residual = 0.09401966, Final residual = 0.0009116613, No Iterations 1
time step continuity errors : sum local = 0.0002622384, global = 6.165784e-05, cumulative = -0.02859967
rho min/max : 1.201583 1.201666
DILUPBiCGStab:  Solving for epsilon, Initial residual = 0.1765015, Final residual = 5.350985e-14, No Iterations 1
bounding epsilon, min: -5.108025e-11 max: 1e-06 average: 5.739554e-12
DILUPBiCGStab:  Solving for k, Initial residual = 1, Final residual = 1.577698e-07, No Iterations 1
bounding k, min: 0 max: 7.657874e-16 average: 7.084142e-16
ExecutionTime = 5.74 s  ClockTime = 5 s

Time = 46

DILUPBiCGStab:  Solving for h, Initial residual = 0.01559944, Final residual = 2.711703e-05, No Iterations 1
GAMG:  Solving for p_rgh, Initial residual = 0.09274076, Final residual = 0.0001743425, No Iterations 2
time step continuity errors : sum local = 5.146909e-05, global = 2.118757e-05, cumulative = -0.02857848
rho min/max : 1.201583 1.201666
DILUPBiCGStab:  Solving for epsilon, Initial residual = 0.1765071, Final residual = 9.597465e-14, No Iterations 1
DILUPBiCGStab:  Solving for k, Initial residual = 1, Final residual = 3.002109e-07, No Iterations 1
bounding k, min: 0 max: 7.829742e-16 average: 7.113996e-16
ExecutionTime = 5.82 s  ClockTime = 6 s

Time = 47

DILUPBiCGStab:  Solving for h, Initial residual = 0.01570459, Final residual = 2.548335e-05, No Iterations 1
GAMG:  Solving for p_rgh, Initial residual = 0.0903996, Final residual = 0.0001736276, No Iterations 2
time step continuity errors : sum local = 5.217418e-05, global = 2.606989e-05, cumulative = -0.02855241
rho min/max : 1.201584 1.201666
DILUPBiCGStab:  Solving for epsilon, Initial residual = 0.1765062, Final residual = 1.238373e-13, No Iterations 1
bounding epsilon, min: -1.706848e-12 max: 1e-06 average: 4.278151e-12
DILUPBiCGStab:  Solving for k, Initial residual = 1, Final residual = 4.762282e-07, No Iterations 1
bounding k, min: 0 max: 8.017264e-16 average: 7.152384e-16
ExecutionTime = 5.91 s  ClockTime = 6 s

Time = 48

DILUPBiCGStab:  Solving for h, Initial residual = 0.01580826, Final residual = 2.604175e-05, No Iterations 1
GAMG:  Solving for p_rgh, Initial residual = 0.08947369, Final residual = 0.0008799463, No Iterations 1
time step continuity errors : sum local = 0.0002636617, global = 8.780444e-05, cumulative = -0.02846461
rho min/max : 1.201584 1.201666
DILUPBiCGStab:  Solving for epsilon, Initial residual = 0.1765061, Final residual = 3.128284e-13, No Iterations 1
bounding epsilon, min: -3.065897e-10 max: 1e-06 average: 4.301895e-12
DILUPBiCGStab:  Solving for k, Initial residual = 1, Final residual = 1.52026e-07, No Iterations 1
bounding k, min: 0 max: 8.5184e-16 average: 7.200314e-16
ExecutionTime = 5.98 s  ClockTime = 6 s

Time = 49

DILUPBiCGStab:  Solving for h, Initial residual = 0.01574377, Final residual = 2.919268e-05, No Iterations 1
GAMG:  Solving for p_rgh, Initial residual = 0.09184008, Final residual = 0.0002816447, No Iterations 2
time step continuity errors : sum local = 8.439519e-05, global = 1.846427e-05, cumulative = -0.02844614
rho min/max : 1.201585 1.201666
DILUPBiCGStab:  Solving for epsilon, Initial residual = 0.1764827, Final residual = 1.112164e-14, No Iterations 1
DILUPBiCGStab:  Solving for k, Initial residual = 1, Final residual = 2.825183e-07, No Iterations 1
bounding k, min: 0 max: 9.120857e-16 average: 7.259473e-16
ExecutionTime = 6.06 s  ClockTime = 6 s

Time = 50

DILUPBiCGStab:  Solving for h, Initial residual = 0.01621307, Final residual = 2.650305e-05, No Iterations 1
GAMG:  Solving for p_rgh, Initial residual = 0.09502745, Final residual = 0.0002062186, No Iterations 2
time step continuity errors : sum local = 6.041875e-05, global = 1.409811e-05, cumulative = -0.02843204
rho min/max : 1.201585 1.201666
DILUPBiCGStab:  Solving for epsilon, Initial residual = 0.1764832, Final residual = 1.248478e-14, No Iterations 1
bounding epsilon, min: -1.545235e-10 max: 1e-06 average: 5.336145e-12
DILUPBiCGStab:  Solving for k, Initial residual = 1, Final residual = 6.628625e-08, No Iterations 1
bounding k, min: 0 max: 9.603845e-16 average: 7.374849e-16
ExecutionTime = 6.59 s  ClockTime = 6 s

Time = 51

DILUPBiCGStab:  Solving for h, Initial residual = 0.01603718, Final residual = 2.580681e-05, No Iterations 1
GAMG:  Solving for p_rgh, Initial residual = 0.09057142, Final residual = 0.0001672319, No Iterations 2
time step continuity errors : sum local = 4.93753e-05, global = 2.720158e-06, cumulative = -0.02842932
rho min/max : 1.201585 1.201666
DILUPBiCGStab:  Solving for epsilon, Initial residual = 0.1765037, Final residual = 8.920526e-15, No Iterations 1
bounding epsilon, min: -7.828746e-11 max: 1e-06 average: 1.798719e-11
DILUPBiCGStab:  Solving for k, Initial residual = 1, Final residual = 1.552539e-08, No Iterations 1
bounding k, min: 0 max: 9.963897e-16 average: 7.566068e-16
ExecutionTime = 6.69 s  ClockTime = 6 s

Time = 52

DILUPBiCGStab:  Solving for h, Initial residual = 0.01618314, Final residual = 2.533145e-05, No Iterations 1
GAMG:  Solving for p_rgh, Initial residual = 0.09068804, Final residual = 0.0002118984, No Iterations 2
time step continuity errors : sum local = 6.242133e-05, global = -2.774202e-05, cumulative = -0.02845707
rho min/max : 1.201585 1.201666
DILUPBiCGStab:  Solving for epsilon, Initial residual = 0.1765946, Final residual = 3.12277e-14, No Iterations 1
bounding epsilon, min: -1.440442e-10 max: 1e-06 average: 7.330434e-11
DILUPBiCGStab:  Solving for k, Initial residual = 1, Final residual = 1.691234e-08, No Iterations 1
bounding k, min: 0 max: 1.049757e-15 average: 7.806431e-16
ExecutionTime = 6.77 s  ClockTime = 6 s

Time = 53

DILUPBiCGStab:  Solving for h, Initial residual = 0.01568427, Final residual = 2.475297e-05, No Iterations 1
GAMG:  Solving for p_rgh, Initial residual = 0.09059506, Final residual = 0.0002456342, No Iterations 2
time step continuity errors : sum local = 7.042506e-05, global = -2.917355e-05, cumulative = -0.02848624
rho min/max : 1.201586 1.201666
DILUPBiCGStab:  Solving for epsilon, Initial residual = 0.1765903, Final residual = 6.834736e-15, No Iterations 1
bounding epsilon, min: -6.436849e-10 max: 1e-06 average: 7.17414e-11
DILUPBiCGStab:  Solving for k, Initial residual = 0.9999852, Final residual = 1.857555e-08, No Iterations 1
bounding k, min: 0 max: 1.134616e-15 average: 8.074937e-16
ExecutionTime = 6.85 s  ClockTime = 7 s

Time = 54

DILUPBiCGStab:  Solving for h, Initial residual = 0.01599444, Final residual = 2.613476e-05, No Iterations 1
GAMG:  Solving for p_rgh, Initial residual = 0.09360465, Final residual = 0.0002196998, No Iterations 2
time step continuity errors : sum local = 6.249143e-05, global = -1.336939e-05, cumulative = -0.02849961
rho min/max : 1.201586 1.201666
DILUPBiCGStab:  Solving for epsilon, Initial residual = 0.1765916, Final residual = 6.428947e-15, No Iterations 1
bounding epsilon, min: -2.32738e-10 max: 1e-06 average: 7.031044e-11
DILUPBiCGStab:  Solving for k, Initial residual = 0.9999421, Final residual = 2.171564e-08, No Iterations 1
bounding k, min: 0 max: 1.262338e-15 average: 8.317753e-16
ExecutionTime = 6.94 s  ClockTime = 7 s

Time = 55

DILUPBiCGStab:  Solving for h, Initial residual = 0.01589736, Final residual = 2.516929e-05, No Iterations 1
GAMG:  Solving for p_rgh, Initial residual = 0.09168639, Final residual = 0.000231395, No Iterations 2
time step continuity errors : sum local = 6.735479e-05, global = 8.416714e-06, cumulative = -0.02849119
rho min/max : 1.201586 1.201666
DILUPBiCGStab:  Solving for epsilon, Initial residual = 0.1765717, Final residual = 6.131109e-15, No Iterations 1
bounding epsilon, min: -7.800466e-11 max: 1e-06 average: 6.068638e-11
DILUPBiCGStab:  Solving for k, Initial residual = 0.9998633, Final residual = 2.83163e-08, No Iterations 1
bounding k, min: 0 max: 1.439539e-15 average: 8.511388e-16
ExecutionTime = 7.02 s  ClockTime = 7 s

Time = 56

DILUPBiCGStab:  Solving for h, Initial residual = 0.01619708, Final residual = 2.554263e-05, No Iterations 1
GAMG:  Solving for p_rgh, Initial residual = 0.08980057, Final residual = 0.0002759843, No Iterations 2
time step continuity errors : sum local = 8.33178e-05, global = 1.14346e-05, cumulative = -0.02847976
rho min/max : 1.201586 1.201666
DILUPBiCGStab:  Solving for epsilon, Initial residual = 0.1765799, Final residual = 4.089225e-15, No Iterations 1
bounding epsilon, min: -3.398872e-11 max: 1e-06 average: 4.751013e-11
DILUPBiCGStab:  Solving for k, Initial residual = 0.999722, Final residual = 3.576629e-08, No Iterations 1
bounding k, min: 0 max: 1.66536e-15 average: 8.673897e-16
ExecutionTime = 7.1 s  ClockTime = 7 s

Time = 57

DILUPBiCGStab:  Solving for h, Initial residual = 0.01645551, Final residual = 2.798678e-05, No Iterations 1
GAMG:  Solving for p_rgh, Initial residual = 0.08595627, Final residual = 0.0008346798, No Iterations 1
time step continuity errors : sum local = 0.0002533939, global = 0.0001287233, cumulative = -0.02835103
rho min/max : 1.201587 1.201666
DILUPBiCGStab:  Solving for epsilon, Initial residual = 0.1765882, Final residual = 6.619378e-15, No Iterations 1
bounding epsilon, min: -1.891181e-13 max: 1e-06 average: 3.678076e-11
DILUPBiCGStab:  Solving for k, Initial residual = 0.9994991, Final residual = 4.455197e-08, No Iterations 1
bounding k, min: 0 max: 1.951323e-15 average: 8.814146e-16
ExecutionTime = 7.17 s  ClockTime = 7 s

Time = 58

DILUPBiCGStab:  Solving for h, Initial residual = 0.01637951, Final residual = 2.61319e-05, No Iterations 1
GAMG:  Solving for p_rgh, Initial residual = 0.08647388, Final residual = 0.0004391611, No Iterations 2
time step continuity errors : sum local = 0.0001311375, global = 5.350889e-06, cumulative = -0.02834568
rho min/max : 1.201587 1.201666
DILUPBiCGStab:  Solving for epsilon, Initial residual = 0.17659, Final residual = 2.051043e-15, No Iterations 1
bounding epsilon, min: -1.544729e-11 max: 1e-06 average: 2.627763e-11
DILUPBiCGStab:  Solving for k, Initial residual = 0.9991796, Final residual = 5.167388e-08, No Iterations 1
bounding k, min: 0 max: 2.296618e-15 average: 8.928974e-16
ExecutionTime = 7.26 s  ClockTime = 7 s

Time = 59

DILUPBiCGStab:  Solving for h, Initial residual = 0.01643812, Final residual = 2.592534e-05, No Iterations 1
GAMG:  Solving for p_rgh, Initial residual = 0.08344139, Final residual = 0.0002692526, No Iterations 2
time step continuity errors : sum local = 8.007724e-05, global = 8.193388e-07, cumulative = -0.02834486
rho min/max : 1.201588 1.201666
DILUPBiCGStab:  Solving for epsilon, Initial residual = 0.1766042, Final residual = 3.577427e-15, No Iterations 1
bounding epsilon, min: -2.828221e-11 max: 1e-06 average: 2.222389e-11
DILUPBiCGStab:  Solving for k, Initial residual = 0.9987378, Final residual = 6.43407e-08, No Iterations 1
bounding k, min: 0 max: 2.698961e-15 average: 9.020807e-16
ExecutionTime = 7.35 s  ClockTime = 7 s

Time = 60

DILUPBiCGStab:  Solving for h, Initial residual = 0.01640568, Final residual = 2.535566e-05, No Iterations 1
GAMG:  Solving for p_rgh, Initial residual = 0.08527615, Final residual = 0.000201858, No Iterations 2
time step continuity errors : sum local = 5.947827e-05, global = 9.453859e-06, cumulative = -0.02833541
rho min/max : 1.201588 1.201666
DILUPBiCGStab:  Solving for epsilon, Initial residual = 0.1766126, Final residual = 7.594064e-15, No Iterations 1
bounding epsilon, min: -3.681481e-11 max: 1e-06 average: 1.672363e-11
DILUPBiCGStab:  Solving for k, Initial residual = 0.9981719, Final residual = 8.042737e-08, No Iterations 1
bounding k, min: 0 max: 3.115746e-15 average: 9.094175e-16
ExecutionTime = 7.9 s  ClockTime = 8 s

Time = 61

DILUPBiCGStab:  Solving for h, Initial residual = 0.01651256, Final residual = 2.467123e-05, No Iterations 1
GAMG:  Solving for p_rgh, Initial residual = 0.08259397, Final residual = 0.0001882665, No Iterations 2
time step continuity errors : sum local = 5.572037e-05, global = 1.167177e-05, cumulative = -0.02832374
rho min/max : 1.201588 1.201666
DILUPBiCGStab:  Solving for epsilon, Initial residual = 0.1766233, Final residual = 1.025722e-14, No Iterations 1
bounding epsilon, min: -1.509494e-11 max: 1e-06 average: 1.307226e-11
DILUPBiCGStab:  Solving for k, Initial residual = 0.9974569, Final residual = 7.896835e-08, No Iterations 1
bounding k, min: 0 max: 3.526102e-15 average: 9.151005e-16
ExecutionTime = 7.99 s  ClockTime = 8 s

Time = 62

DILUPBiCGStab:  Solving for h, Initial residual = 0.01653813, Final residual = 2.474952e-05, No Iterations 1
GAMG:  Solving for p_rgh, Initial residual = 0.08873808, Final residual = 0.000230963, No Iterations 2
time step continuity errors : sum local = 6.673364e-05, global = 1.4132e-05, cumulative = -0.02830961
rho min/max : 1.201588 1.201666
DILUPBiCGStab:  Solving for epsilon, Initial residual = 0.1765564, Final residual = 1.760491e-14, No Iterations 1
bounding epsilon, min: 7.222465e-16 max: 1e-06 average: 1.336273e-11
DILUPBiCGStab:  Solving for k, Initial residual = 0.9965534, Final residual = 1.05152e-07, No Iterations 1
bounding k, min: 0 max: 3.948083e-15 average: 9.19374e-16
ExecutionTime = 8.07 s  ClockTime = 8 s

Time = 63

DILUPBiCGStab:  Solving for h, Initial residual = 0.01637393, Final residual = 2.521056e-05, No Iterations 1
GAMG:  Solving for p_rgh, Initial residual = 0.08612972, Final residual = 0.0002832184, No Iterations 2
time step continuity errors : sum local = 8.041304e-05, global = 1.015032e-05, cumulative = -0.02829946
rho min/max : 1.201589 1.201666
DILUPBiCGStab:  Solving for epsilon, Initial residual = 0.1765594, Final residual = 2.184516e-14, No Iterations 1
bounding epsilon, min: -1.819336e-11 max: 1e-06 average: 9.884157e-12
DILUPBiCGStab:  Solving for k, Initial residual = 0.9954305, Final residual = 1.369643e-07, No Iterations 1
bounding k, min: 0 max: 4.409472e-15 average: 9.227511e-16
ExecutionTime = 8.15 s  ClockTime = 8 s

Time = 64

DILUPBiCGStab:  Solving for h, Initial residual = 0.0167642, Final residual = 2.551859e-05, No Iterations 1
GAMG:  Solving for p_rgh, Initial residual = 0.08793752, Final residual = 0.0002876895, No Iterations 2
time step continuity errors : sum local = 8.180477e-05, global = 9.095605e-06, cumulative = -0.02829036
rho min/max : 1.201589 1.201666
DILUPBiCGStab:  Solving for epsilon, Initial residual = 0.1765689, Final residual = 3.372482e-14, No Iterations 1
bounding epsilon, min: 5.286342e-17 max: 1e-06 average: 8.257357e-12
DILUPBiCGStab:  Solving for k, Initial residual = 0.9940551, Final residual = 1.883014e-07, No Iterations 1
bounding k, min: 0 max: 4.93517e-15 average: 9.255533e-16
ExecutionTime = 8.23 s  ClockTime = 8 s

Time = 65

DILUPBiCGStab:  Solving for h, Initial residual = 0.01689851, Final residual = 2.668842e-05, No Iterations 1
GAMG:  Solving for p_rgh, Initial residual = 0.08721644, Final residual = 0.0003522776, No Iterations 2
time step continuity errors : sum local = 9.922791e-05, global = 4.123551e-06, cumulative = -0.02828624
rho min/max : 1.201589 1.201666
DILUPBiCGStab:  Solving for epsilon, Initial residual = 0.1765733, Final residual = 5.499511e-14, No Iterations 1
bounding epsilon, min: 7.087e-16 max: 1e-06 average: 6.309835e-12
DILUPBiCGStab:  Solving for k, Initial residual = 0.9923756, Final residual = 2.560603e-07, No Iterations 1
bounding k, min: 0 max: 5.546876e-15 average: 9.280001e-16
ExecutionTime = 8.31 s  ClockTime = 8 s

Time = 66

DILUPBiCGStab:  Solving for h, Initial residual = 0.01686869, Final residual = 2.716144e-05, No Iterations 1
GAMG:  Solving for p_rgh, Initial residual = 0.08660926, Final residual = 0.0002848721, No Iterations 2
time step continuity errors : sum local = 8.077799e-05, global = 4.798588e-06, cumulative = -0.02828144
rho min/max : 1.201589 1.201666
DILUPBiCGStab:  Solving for epsilon, Initial residual = 0.1765777, Final residual = 9.815952e-14, No Iterations 1
bounding epsilon, min: 7.064832e-16 max: 1e-06 average: 4.94569e-12
DILUPBiCGStab:  Solving for k, Initial residual = 0.9903324, Final residual = 3.584372e-07, No Iterations 1
bounding k, min: 0 max: 6.252132e-15 average: 9.30197e-16
ExecutionTime = 8.39 s  ClockTime = 8 s

Time = 67

DILUPBiCGStab:  Solving for h, Initial residual = 0.01688791, Final residual = 2.566163e-05, No Iterations 1
GAMG:  Solving for p_rgh, Initial residual = 0.0853636, Final residual = 0.0002530757, No Iterations 2
time step continuity errors : sum local = 7.217674e-05, global = 1.082604e-05, cumulative = -0.02827061
rho min/max : 1.20159 1.201666
DILUPBiCGStab:  Solving for epsilon, Initial residual = 0.1765803, Final residual = 1.744493e-13, No Iterations 1
bounding epsilon, min: -2.662039e-11 max: 1e-06 average: 3.989137e-12
DILUPBiCGStab:  Solving for k, Initial residual = 0.9878789, Final residual = 4.504814e-07, No Iterations 1
bounding k, min: 0 max: 7.035223e-15 average: 9.322228e-16
ExecutionTime = 8.48 s  ClockTime = 8 s

Time = 68

DILUPBiCGStab:  Solving for h, Initial residual = 0.01689697, Final residual = 2.438057e-05, No Iterations 1
GAMG:  Solving for p_rgh, Initial residual = 0.08561009, Final residual = 0.0002299249, No Iterations 2
time step continuity errors : sum local = 6.545021e-05, global = 1.414394e-05, cumulative = -0.02825647
rho min/max : 1.20159 1.201666
DILUPBiCGStab:  Solving for epsilon, Initial residual = 0.1765658, Final residual = 4.27742e-13, No Iterations 1
bounding epsilon, min: -8.301989e-11 max: 1e-06 average: 3.912542e-12
DILUPBiCGStab:  Solving for k, Initial residual = 0.9849823, Final residual = 1.855526e-07, No Iterations 1
bounding k, min: 0 max: 7.870772e-15 average: 9.340935e-16
ExecutionTime = 8.56 s  ClockTime = 8 s

Time = 69

DILUPBiCGStab:  Solving for h, Initial residual = 0.01638741, Final residual = 2.355953e-05, No Iterations 1
GAMG:  Solving for p_rgh, Initial residual = 0.09058929, Final residual = 0.0002531267, No Iterations 2
time step continuity errors : sum local = 7.049102e-05, global = 1.108946e-05, cumulative = -0.02824538
rho min/max : 1.20159 1.201666
DILUPBiCGStab:  Solving for epsilon, Initial residual = 0.17649, Final residual = 5.309978e-14, No Iterations 1
bounding epsilon, min: -5.697649e-11 max: 1e-06 average: 6.857511e-12
DILUPBiCGStab:  Solving for k, Initial residual = 0.9815837, Final residual = 2.297267e-07, No Iterations 1
bounding k, min: 0 max: 9.131332e-15 average: 9.358239e-16
ExecutionTime = 8.64 s  ClockTime = 8 s

Time = 70

DILUPBiCGStab:  Solving for h, Initial residual = 0.01681765, Final residual = 2.502447e-05, No Iterations 1
GAMG:  Solving for p_rgh, Initial residual = 0.08673737, Final residual = 0.0002698923, No Iterations 2
time step continuity errors : sum local = 7.590367e-05, global = 8.899641e-06, cumulative = -0.02823648
rho min/max : 1.20159 1.201666
DILUPBiCGStab:  Solving for epsilon, Initial residual = 0.1764984, Final residual = 3.231798e-13, No Iterations 1
bounding epsilon, min: -4.528839e-11 max: 1e-06 average: 6.758101e-12
DILUPBiCGStab:  Solving for k, Initial residual = 0.9777233, Final residual = 1.674116e-07, No Iterations 1
bounding k, min: 0 max: 1.08748e-14 average: 9.37467e-16
ExecutionTime = 9.16 s  ClockTime = 9 s

Time = 71

DILUPBiCGStab:  Solving for h, Initial residual = 0.01681272, Final residual = 2.586764e-05, No Iterations 1
GAMG:  Solving for p_rgh, Initial residual = 0.08241767, Final residual = 0.000241269, No Iterations 2
time step continuity errors : sum local = 6.809098e-05, global = 1.192606e-05, cumulative = -0.02822455
rho min/max : 1.201591 1.201666
DILUPBiCGStab:  Solving for epsilon, Initial residual = 0.1764911, Final residual = 4.31503e-15, No Iterations 1
bounding epsilon, min: -5.062382e-12 max: 1e-06 average: 7.462576e-12
DILUPBiCGStab:  Solving for k, Initial residual = 0.97328, Final residual = 1.255256e-07, No Iterations 1
bounding k, min: 0 max: 1.301269e-14 average: 9.390966e-16
ExecutionTime = 9.24 s  ClockTime = 9 s

Time = 72

DILUPBiCGStab:  Solving for h, Initial residual = 0.01664788, Final residual = 2.643572e-05, No Iterations 1
GAMG:  Solving for p_rgh, Initial residual = 0.08454764, Final residual = 0.0002621172, No Iterations 2
time step continuity errors : sum local = 7.395639e-05, global = 1.218668e-05, cumulative = -0.02821237
rho min/max : 1.201591 1.201666
DILUPBiCGStab:  Solving for epsilon, Initial residual = 0.1764975, Final residual = 2.205529e-15, No Iterations 1
bounding epsilon, min: -1.044928e-11 max: 1e-06 average: 9.355079e-12
DILUPBiCGStab:  Solving for k, Initial residual = 0.9681272, Final residual = 9.179961e-08, No Iterations 1
bounding k, min: 0 max: 1.537392e-14 average: 9.4076e-16
ExecutionTime = 9.33 s  ClockTime = 9 s

Time = 73

DILUPBiCGStab:  Solving for h, Initial residual = 0.01647397, Final residual = 2.763764e-05, No Iterations 1
GAMG:  Solving for p_rgh, Initial residual = 0.08633556, Final residual = 0.0003001031, No Iterations 2
time step continuity errors : sum local = 8.53771e-05, global = 1.322986e-05, cumulative = -0.02819914
rho min/max : 1.201591 1.201666
DILUPBiCGStab:  Solving for epsilon, Initial residual = 0.176501, Final residual = 7.27016e-15, No Iterations 1
bounding epsilon, min: -3.250119e-09 max: 1e-06 average: 1.095301e-11
DILUPBiCGStab:  Solving for k, Initial residual = 0.9621585, Final residual = 3.233141e-08, No Iterations 1
bounding k, min: 0 max: 1.807873e-14 average: 9.424943e-16
ExecutionTime = 9.41 s  ClockTime = 9 s

Time = 74

DILUPBiCGStab:  Solving for h, Initial residual = 0.01652167, Final residual = 2.51679e-05, No Iterations 1
GAMG:  Solving for p_rgh, Initial residual = 0.08292006, Final residual = 0.0003323012, No Iterations 2
time step continuity errors : sum local = 9.546498e-05, global = 1.637279e-05, cumulative = -0.02818276
rho min/max : 1.201591 1.201666
DILUPBiCGStab:  Solving for epsilon, Initial residual = 0.1765117, Final residual = 9.241469e-15, No Iterations 1
bounding epsilon, min: -1.448244e-10 max: 1e-06 average: 2.119008e-11
DILUPBiCGStab:  Solving for k, Initial residual = 0.9552662, Final residual = 7.204184e-09, No Iterations 1
bounding k, min: 0 max: 2.130441e-14 average: 9.443142e-16
ExecutionTime = 9.49 s  ClockTime = 9 s

Time = 75

DILUPBiCGStab:  Solving for h, Initial residual = 0.01614203, Final residual = 2.345117e-05, No Iterations 1
GAMG:  Solving for p_rgh, Initial residual = 0.08039697, Final residual = 0.0003025379, No Iterations 2
time step continuity errors : sum local = 8.838843e-05, global = 1.610619e-05, cumulative = -0.02816666
rho min/max : 1.201592 1.201666
DILUPBiCGStab:  Solving for epsilon, Initial residual = 0.1765917, Final residual = 4.093359e-14, No Iterations 1
bounding epsilon, min: -3.737335e-10 max: 1e-06 average: 7.045219e-11
DILUPBiCGStab:  Solving for k, Initial residual = 0.9474038, Final residual = 8.09215e-09, No Iterations 1
bounding k, min: 0 max: 2.528543e-14 average: 9.461576e-16
ExecutionTime = 9.56 s  ClockTime = 9 s

Time = 76

DILUPBiCGStab:  Solving for h, Initial residual = 0.01611408, Final residual = 2.317547e-05, No Iterations 1
GAMG:  Solving for p_rgh, Initial residual = 0.08003062, Final residual = 0.000313018, No Iterations 2
time step continuity errors : sum local = 9.212119e-05, global = 1.559732e-05, cumulative = -0.02815106
rho min/max : 1.201592 1.201666
DILUPBiCGStab:  Solving for epsilon, Initial residual = 0.1766087, Final residual = 1.54514e-14, No Iterations 1
bounding epsilon, min: -6.020194e-11 max: 1e-06 average: 6.289094e-11
DILUPBiCGStab:  Solving for k, Initial residual = 0.9384926, Final residual = 1.026918e-08, No Iterations 1
bounding k, min: 0 max: 3.019345e-14 average: 9.482046e-16
ExecutionTime = 9.64 s  ClockTime = 9 s

Time = 77

DILUPBiCGStab:  Solving for h, Initial residual = 0.01579074, Final residual = 2.389518e-05, No Iterations 1
GAMG:  Solving for p_rgh, Initial residual = 0.07869075, Final residual = 0.0001698305, No Iterations 2
time step continuity errors : sum local = 4.964793e-05, global = 1.853343e-05, cumulative = -0.02813253
rho min/max : 1.201592 1.201666
DILUPBiCGStab:  Solving for epsilon, Initial residual = 0.1766196, Final residual = 1.530901e-15, No Iterations 1
bounding epsilon, min: -3.598314e-10 max: 1e-06 average: 5.082173e-11
DILUPBiCGStab:  Solving for k, Initial residual = 0.928513, Final residual = 1.072588e-08, No Iterations 1
bounding k, min: 0 max: 3.590912e-14 average: 9.505252e-16
ExecutionTime = 9.73 s  ClockTime = 9 s

Time = 78

DILUPBiCGStab:  Solving for h, Initial residual = 0.0158589, Final residual = 2.640768e-05, No Iterations 1
GAMG:  Solving for p_rgh, Initial residual = 0.07969084, Final residual = 0.0001752974, No Iterations 2
time step continuity errors : sum local = 5.12366e-05, global = 2.329774e-05, cumulative = -0.02810923
rho min/max : 1.201592 1.201666
DILUPBiCGStab:  Solving for epsilon, Initial residual = 0.1765572, Final residual = 4.685271e-16, No Iterations 1
bounding epsilon, min: -3.596914e-09 max: 1e-06 average: 4.649062e-11
DILUPBiCGStab:  Solving for k, Initial residual = 0.9172842, Final residual = 1.29562e-08, No Iterations 1
bounding k, min: 0 max: 4.205418e-14 average: 9.530862e-16
ExecutionTime = 9.83 s  ClockTime = 10 s

Time = 79

DILUPBiCGStab:  Solving for h, Initial residual = 0.01590981, Final residual = 2.399934e-05, No Iterations 1
GAMG:  Solving for p_rgh, Initial residual = 0.08016127, Final residual = 0.0001963866, No Iterations 2
time step continuity errors : sum local = 5.701543e-05, global = 2.203823e-05, cumulative = -0.02808719
rho min/max : 1.201593 1.201666
DILUPBiCGStab:  Solving for epsilon, Initial residual = 0.1765793, Final residual = 2.929671e-15, No Iterations 1
bounding epsilon, min: -3.733627e-10 max: 1e-06 average: 4.269363e-11
DILUPBiCGStab:  Solving for k, Initial residual = 0.904803, Final residual = 1.203844e-08, No Iterations 1
bounding k, min: 0 max: 4.933785e-14 average: 9.559559e-16
ExecutionTime = 9.92 s  ClockTime = 10 s

Time = 80

DILUPBiCGStab:  Solving for h, Initial residual = 0.01559268, Final residual = 2.516322e-05, No Iterations 1
GAMG:  Solving for p_rgh, Initial residual = 0.08063655, Final residual = 0.0002004918, No Iterations 2
time step continuity errors : sum local = 5.846175e-05, global = 2.355028e-05, cumulative = -0.02806364
rho min/max : 1.201593 1.201665
DILUPBiCGStab:  Solving for epsilon, Initial residual = 0.1765465, Final residual = 4.518158e-15, No Iterations 1
bounding epsilon, min: -3.857244e-11 max: 1e-06 average: 4.396474e-11
DILUPBiCGStab:  Solving for k, Initial residual = 0.8908961, Final residual = 1.169589e-08, No Iterations 1
bounding k, min: 0 max: 5.758893e-14 average: 9.591575e-16
ExecutionTime = 10.43 s  ClockTime = 10 s

Time = 81

DILUPBiCGStab:  Solving for h, Initial residual = 0.01586985, Final residual = 3.456978e-05, No Iterations 1
GAMG:  Solving for p_rgh, Initial residual = 0.0771036, Final residual = 0.0002191945, No Iterations 2
time step continuity errors : sum local = 6.345208e-05, global = 2.932835e-05, cumulative = -0.02803431
rho min/max : 1.201593 1.201665
DILUPBiCGStab:  Solving for epsilon, Initial residual = 0.1765298, Final residual = 3.180186e-16, No Iterations 1
bounding epsilon, min: -3.365714e-11 max: 1e-06 average: 4.145043e-11
DILUPBiCGStab:  Solving for k, Initial residual = 0.8754154, Final residual = 1.527211e-08, No Iterations 1
bounding k, min: 0 max: 6.641489e-14 average: 9.628002e-16
ExecutionTime = 10.52 s  ClockTime = 10 s

Time = 82

DILUPBiCGStab:  Solving for h, Initial residual = 0.01597479, Final residual = 2.494514e-05, No Iterations 1
GAMG:  Solving for p_rgh, Initial residual = 0.07393078, Final residual = 0.0001904939, No Iterations 2
time step continuity errors : sum local = 5.534045e-05, global = 2.670734e-05, cumulative = -0.02800761
rho min/max : 1.201594 1.201665
DILUPBiCGStab:  Solving for epsilon, Initial residual = 0.1765361, Final residual = 2.23232e-15, No Iterations 1
bounding epsilon, min: -2.927703e-11 max: 1e-06 average: 3.283809e-11
DILUPBiCGStab:  Solving for k, Initial residual = 0.8582659, Final residual = 2.079349e-08, No Iterations 1
bounding k, min: 0 max: 7.542335e-14 average: 9.668776e-16
ExecutionTime = 10.6 s  ClockTime = 10 s

Time = 83

DILUPBiCGStab:  Solving for h, Initial residual = 0.01572353, Final residual = 2.382276e-05, No Iterations 1
GAMG:  Solving for p_rgh, Initial residual = 0.07292068, Final residual = 0.0001961303, No Iterations 2
time step continuity errors : sum local = 5.897241e-05, global = 2.894004e-05, cumulative = -0.02797867
rho min/max : 1.201594 1.201665
DILUPBiCGStab:  Solving for epsilon, Initial residual = 0.1765417, Final residual = 1.051294e-15, No Iterations 1
bounding epsilon, min: -2.03709e-14 max: 1e-06 average: 2.512404e-11
DILUPBiCGStab:  Solving for k, Initial residual = 0.8396217, Final residual = 2.963469e-08, No Iterations 1
bounding k, min: 0 max: 8.420148e-14 average: 9.714698e-16
ExecutionTime = 10.68 s  ClockTime = 10 s

Time = 84

DILUPBiCGStab:  Solving for h, Initial residual = 0.0153745, Final residual = 2.260126e-05, No Iterations 1
GAMG:  Solving for p_rgh, Initial residual = 0.07389343, Final residual = 0.0002171715, No Iterations 2
time step continuity errors : sum local = 6.408496e-05, global = 2.376918e-05, cumulative = -0.0279549
rho min/max : 1.201594 1.201665
DILUPBiCGStab:  Solving for epsilon, Initial residual = 0.1765431, Final residual = 1.438452e-15, No Iterations 1
bounding epsilon, min: -1.181469e-10 max: 1e-06 average: 1.810817e-11
DILUPBiCGStab:  Solving for k, Initial residual = 0.8194407, Final residual = 2.926566e-08, No Iterations 1
bounding k, min: 0 max: 9.270709e-14 average: 9.767051e-16
ExecutionTime = 10.76 s  ClockTime = 10 s

Time = 85

DILUPBiCGStab:  Solving for h, Initial residual = 0.0156365, Final residual = 2.199875e-05, No Iterations 1
GAMG:  Solving for p_rgh, Initial residual = 0.07318464, Final residual = 0.0001689683, No Iterations 2
time step continuity errors : sum local = 5.055644e-05, global = 2.179045e-05, cumulative = -0.02793311
rho min/max : 1.201594 1.201665
DILUPBiCGStab:  Solving for epsilon, Initial residual = 0.1765671, Final residual = 3.039708e-14, No Iterations 1
bounding epsilon, min: -1.893104e-11 max: 1e-06 average: 2.336997e-11
DILUPBiCGStab:  Solving for k, Initial residual = 0.7974277, Final residual = 3.356234e-08, No Iterations 1
bounding k, min: 0 max: 1.005322e-13 average: 9.826323e-16
ExecutionTime = 10.85 s  ClockTime = 11 s

Time = 86

DILUPBiCGStab:  Solving for h, Initial residual = 0.0154991, Final residual = 2.739998e-05, No Iterations 1
GAMG:  Solving for p_rgh, Initial residual = 0.07387122, Final residual = 0.0001977822, No Iterations 2
time step continuity errors : sum local = 5.827999e-05, global = 2.182645e-05, cumulative = -0.02791128
rho min/max : 1.201594 1.201665
DILUPBiCGStab:  Solving for epsilon, Initial residual = 0.1765614, Final residual = 1.801895e-14, No Iterations 1
bounding epsilon, min: -5.240159e-10 max: 1e-06 average: 2.105082e-11
DILUPBiCGStab:  Solving for k, Initial residual = 0.7736273, Final residual = 4.009177e-08, No Iterations 1
bounding k, min: 0 max: 1.074654e-13 average: 9.893942e-16
ExecutionTime = 10.93 s  ClockTime = 11 s

Time = 87

DILUPBiCGStab:  Solving for h, Initial residual = 0.01549753, Final residual = 2.16868e-05, No Iterations 1
GAMG:  Solving for p_rgh, Initial residual = 0.0747536, Final residual = 0.0001696753, No Iterations 2
time step continuity errors : sum local = 4.847969e-05, global = 2.045917e-05, cumulative = -0.02789082
rho min/max : 1.201595 1.201665
DILUPBiCGStab:  Solving for epsilon, Initial residual = 0.1765576, Final residual = 7.858458e-15, No Iterations 1
bounding epsilon, min: 7.083268e-16 max: 1e-06 average: 1.825457e-11
DILUPBiCGStab:  Solving for k, Initial residual = 0.747993, Final residual = 5.639034e-08, No Iterations 1
bounding k, min: 0 max: 1.234797e-13 average: 9.971944e-16
ExecutionTime = 11.01 s  ClockTime = 11 s

Time = 88

DILUPBiCGStab:  Solving for h, Initial residual = 0.01485896, Final residual = 3.287393e-05, No Iterations 1
GAMG:  Solving for p_rgh, Initial residual = 0.0705618, Final residual = 0.000194166, No Iterations 2
time step continuity errors : sum local = 5.643512e-05, global = 2.000106e-05, cumulative = -0.02787082
rho min/max : 1.201595 1.201665
DILUPBiCGStab:  Solving for epsilon, Initial residual = 0.1765599, Final residual = 3.308263e-15, No Iterations 1
bounding epsilon, min: 7.089656e-16 max: 1e-06 average: 1.330486e-11
DILUPBiCGStab:  Solving for k, Initial residual = 0.7205052, Final residual = 7.925327e-08, No Iterations 1
bounding k, min: 0 max: 1.427028e-13 average: 1.006056e-15
ExecutionTime = 11.09 s  ClockTime = 11 s

Time = 89

DILUPBiCGStab:  Solving for h, Initial residual = 0.01498133, Final residual = 2.053236e-05, No Iterations 1
GAMG:  Solving for p_rgh, Initial residual = 0.0709269, Final residual = 0.0001873958, No Iterations 2
time step continuity errors : sum local = 5.430056e-05, global = 1.525175e-05, cumulative = -0.02785557
rho min/max : 1.201595 1.201665
DILUPBiCGStab:  Solving for epsilon, Initial residual = 0.1765629, Final residual = 6.341544e-15, No Iterations 1
bounding epsilon, min: 7.099821e-16 max: 1e-06 average: 9.839637e-12
DILUPBiCGStab:  Solving for k, Initial residual = 0.6914905, Final residual = 1.112385e-07, No Iterations 1
bounding k, min: 0 max: 1.725396e-13 average: 1.016275e-15
ExecutionTime = 11.17 s  ClockTime = 11 s

Time = 90

DILUPBiCGStab:  Solving for h, Initial residual = 0.01476682, Final residual = 2.206069e-05, No Iterations 1
GAMG:  Solving for p_rgh, Initial residual = 0.06989872, Final residual = 0.0002121384, No Iterations 2
time step continuity errors : sum local = 6.171752e-05, global = 1.987216e-05, cumulative = -0.02783569
rho min/max : 1.201595 1.201665
DILUPBiCGStab:  Solving for epsilon, Initial residual = 0.1765667, Final residual = 1.223992e-14, No Iterations 1
bounding epsilon, min: -1.092697e-11 max: 1e-06 average: 7.413141e-12
DILUPBiCGStab:  Solving for k, Initial residual = 0.6607289, Final residual = 1.520548e-07, No Iterations 1
bounding k, min: 0 max: 2.071016e-13 average: 1.0281e-15
ExecutionTime = 11.66 s  ClockTime = 11 s

Time = 91

DILUPBiCGStab:  Solving for h, Initial residual = 0.01472485, Final residual = 2.148477e-05, No Iterations 1
GAMG:  Solving for p_rgh, Initial residual = 0.06774244, Final residual = 0.0001925785, No Iterations 2
time step continuity errors : sum local = 5.750172e-05, global = 1.790791e-05, cumulative = -0.02781779
rho min/max : 1.201595 1.201665
DILUPBiCGStab:  Solving for epsilon, Initial residual = 0.1765775, Final residual = 3.884576e-14, No Iterations 1
bounding epsilon, min: -9.911909e-11 max: 1e-06 average: 6.304569e-12
DILUPBiCGStab:  Solving for k, Initial residual = 0.6282824, Final residual = 2.03267e-07, No Iterations 1
bounding k, min: 0 max: 2.486722e-13 average: 1.041874e-15
ExecutionTime = 11.75 s  ClockTime = 11 s

Time = 92

DILUPBiCGStab:  Solving for h, Initial residual = 0.01437676, Final residual = 2.252485e-05, No Iterations 1
GAMG:  Solving for p_rgh, Initial residual = 0.0721907, Final residual = 0.0001769626, No Iterations 2
time step continuity errors : sum local = 5.122078e-05, global = 2.177982e-05, cumulative = -0.02779601
rho min/max : 1.201595 1.201665
DILUPBiCGStab:  Solving for epsilon, Initial residual = 0.176578, Final residual = 3.47405e-14, No Iterations 1
bounding epsilon, min: -1.52643e-11 max: 1e-06 average: 5.6734e-12
DILUPBiCGStab:  Solving for k, Initial residual = 0.5942177, Final residual = 2.477119e-07, No Iterations 1
bounding k, min: 0 max: 2.942054e-13 average: 1.05785e-15
ExecutionTime = 11.84 s  ClockTime = 12 s

Time = 93

DILUPBiCGStab:  Solving for h, Initial residual = 0.01392156, Final residual = 1.974964e-05, No Iterations 1
GAMG:  Solving for p_rgh, Initial residual = 0.07261217, Final residual = 0.0001569145, No Iterations 2
time step continuity errors : sum local = 4.497006e-05, global = 1.452073e-05, cumulative = -0.02778149
rho min/max : 1.201595 1.201665
DILUPBiCGStab:  Solving for epsilon, Initial residual = 0.1765529, Final residual = 2.774763e-13, No Iterations 1
bounding epsilon, min: -6.331935e-10 max: 1e-06 average: 5.382125e-12
DILUPBiCGStab:  Solving for k, Initial residual = 0.5591272, Final residual = 1.736118e-07, No Iterations 1
bounding k, min: 0 max: 3.482356e-13 average: 1.076365e-15
ExecutionTime = 11.92 s  ClockTime = 12 s

Time = 94

DILUPBiCGStab:  Solving for h, Initial residual = 0.01348439, Final residual = 1.918239e-05, No Iterations 1
GAMG:  Solving for p_rgh, Initial residual = 0.07544823, Final residual = 0.0001648108, No Iterations 2
time step continuity errors : sum local = 4.543124e-05, global = 1.591638e-05, cumulative = -0.02776557
rho min/max : 1.201595 1.201665
DILUPBiCGStab:  Solving for epsilon, Initial residual = 0.176492, Final residual = 5.472167e-15, No Iterations 1
bounding epsilon, min: 7.100611e-16 max: 1e-06 average: 6.251331e-12
DILUPBiCGStab:  Solving for k, Initial residual = 0.523124, Final residual = 2.432632e-07, No Iterations 1
bounding k, min: 0 max: 4.065824e-13 average: 1.097874e-15
ExecutionTime = 12.01 s  ClockTime = 12 s

Time = 95

DILUPBiCGStab:  Solving for h, Initial residual = 0.0137868, Final residual = 2.062693e-05, No Iterations 1
GAMG:  Solving for p_rgh, Initial residual = 0.07685299, Final residual = 0.0002221341, No Iterations 2
time step continuity errors : sum local = 5.99928e-05, global = 8.614274e-06, cumulative = -0.02775696
rho min/max : 1.201595 1.201665
DILUPBiCGStab:  Solving for epsilon, Initial residual = 0.1764925, Final residual = 1.565884e-14, No Iterations 1
bounding epsilon, min: -2.728993e-10 max: 1e-06 average: 4.880611e-12
DILUPBiCGStab:  Solving for k, Initial residual = 0.4869479, Final residual = 6.148924e-08, No Iterations 1
bounding k, min: 0 max: 4.718838e-13 average: 1.122722e-15
ExecutionTime = 12.09 s  ClockTime = 12 s

Time = 96

DILUPBiCGStab:  Solving for h, Initial residual = 0.01338955, Final residual = 1.94122e-05, No Iterations 1
GAMG:  Solving for p_rgh, Initial residual = 0.07274261, Final residual = 0.0002495069, No Iterations 2
time step continuity errors : sum local = 6.954106e-05, global = 3.608981e-06, cumulative = -0.02775335
rho min/max : 1.201595 1.201665
DILUPBiCGStab:  Solving for epsilon, Initial residual = 0.1764985, Final residual = 8.828395e-15, No Iterations 1
bounding epsilon, min: -7.396408e-11 max: 1e-06 average: 1.21459e-11
DILUPBiCGStab:  Solving for k, Initial residual = 0.4507783, Final residual = 3.642731e-08, No Iterations 1
bounding k, min: 0 max: 5.474087e-13 average: 1.151147e-15
ExecutionTime = 12.17 s  ClockTime = 12 s

Time = 97

DILUPBiCGStab:  Solving for h, Initial residual = 0.01321006, Final residual = 1.90771e-05, No Iterations 1
GAMG:  Solving for p_rgh, Initial residual = 0.07121853, Final residual = 0.0002300808, No Iterations 2
time step continuity errors : sum local = 6.443356e-05, global = 4.900428e-06, cumulative = -0.02774845
rho min/max : 1.201595 1.201665
DILUPBiCGStab:  Solving for epsilon, Initial residual = 0.1765091, Final residual = 4.784051e-15, No Iterations 1
bounding epsilon, min: -1.410498e-10 max: 1e-06 average: 1.696944e-11
DILUPBiCGStab:  Solving for k, Initial residual = 0.4154375, Final residual = 6.688884e-09, No Iterations 1
bounding k, min: 0 max: 6.282109e-13 average: 1.183722e-15
ExecutionTime = 12.25 s  ClockTime = 12 s

Time = 98

DILUPBiCGStab:  Solving for h, Initial residual = 0.01314695, Final residual = 1.934362e-05, No Iterations 1
GAMG:  Solving for p_rgh, Initial residual = 0.07441911, Final residual = 0.0002062469, No Iterations 2
time step continuity errors : sum local = 5.715354e-05, global = 5.267631e-06, cumulative = -0.02774318
rho min/max : 1.201595 1.201665
DILUPBiCGStab:  Solving for epsilon, Initial residual = 0.1765776, Final residual = 1.786622e-14, No Iterations 1
bounding epsilon, min: -2.42582e-10 max: 1e-06 average: 6.18097e-11
DILUPBiCGStab:  Solving for k, Initial residual = 0.381132, Final residual = 6.858355e-09, No Iterations 1
bounding k, min: 0 max: 7.166397e-13 average: 1.220684e-15
ExecutionTime = 12.33 s  ClockTime = 12 s

Time = 99

DILUPBiCGStab:  Solving for h, Initial residual = 0.01289711, Final residual = 1.806944e-05, No Iterations 1
GAMG:  Solving for p_rgh, Initial residual = 0.07274228, Final residual = 0.000186953, No Iterations 2
time step continuity errors : sum local = 5.212267e-05, global = 6.314155e-06, cumulative = -0.02773686
rho min/max : 1.201595 1.201665
DILUPBiCGStab:  Solving for epsilon, Initial residual = 0.1765952, Final residual = 5.759857e-15, No Iterations 1
bounding epsilon, min: -4.685792e-11 max: 1e-06 average: 6.039431e-11
DILUPBiCGStab:  Solving for k, Initial residual = 0.3483924, Final residual = 7.809444e-09, No Iterations 1
bounding k, min: 0 max: 8.043741e-13 average: 1.263139e-15
ExecutionTime = 12.41 s  ClockTime = 12 s

Time = 100

DILUPBiCGStab:  Solving for h, Initial residual = 0.01267338, Final residual = 1.8821e-05, No Iterations 1
GAMG:  Solving for p_rgh, Initial residual = 0.07356435, Final residual = 0.0001699715, No Iterations 2
time step continuity errors : sum local = 4.747335e-05, global = 6.538835e-06, cumulative = -0.02773033
rho min/max : 1.201595 1.201665
DILUPBiCGStab:  Solving for epsilon, Initial residual = 0.1766018, Final residual = 4.113445e-15, No Iterations 1
bounding epsilon, min: -6.260636e-10 max: 1e-06 average: 5.295388e-11
DILUPBiCGStab:  Solving for k, Initial residual = 0.3171495, Final residual = 9.45606e-09, No Iterations 1
bounding k, min: 0 max: 8.975383e-13 average: 1.312033e-15
ExecutionTime = 12.89 s  ClockTime = 13 s

Time = 101

DILUPBiCGStab:  Solving for h, Initial residual = 0.01243743, Final residual = 1.770078e-05, No Iterations 1
GAMG:  Solving for p_rgh, Initial residual = 0.07715166, Final residual = 0.0001665088, No Iterations 2
time step continuity errors : sum local = 4.71839e-05, global = 8.578033e-06, cumulative = -0.02772175
rho min/max : 1.201595 1.201665
DILUPBiCGStab:  Solving for epsilon, Initial residual = 0.1766142, Final residual = 6.649149e-15, No Iterations 1
bounding epsilon, min: -7.641469e-11 max: 1e-06 average: 4.578086e-11
DILUPBiCGStab:  Solving for k, Initial residual = 0.2874611, Final residual = 1.206966e-08, No Iterations 1
bounding k, min: 0 max: 1.058772e-12 average: 1.367604e-15
ExecutionTime = 12.98 s  ClockTime = 13 s

Time = 102

DILUPBiCGStab:  Solving for h, Initial residual = 0.01231247, Final residual = 1.783875e-05, No Iterations 1
GAMG:  Solving for p_rgh, Initial residual = 0.07240416, Final residual = 0.0001800318, No Iterations 2
time step continuity errors : sum local = 5.195248e-05, global = 9.584728e-06, cumulative = -0.02771216
rho min/max : 1.201595 1.201665
DILUPBiCGStab:  Solving for epsilon, Initial residual = 0.1766283, Final residual = 9.373664e-15, No Iterations 1
bounding epsilon, min: -1.326211e-10 max: 1e-06 average: 3.837381e-11
DILUPBiCGStab:  Solving for k, Initial residual = 0.2598146, Final residual = 1.378471e-08, No Iterations 1
bounding k, min: 0 max: 1.242035e-12 average: 1.431303e-15
ExecutionTime = 13.06 s  ClockTime = 13 s

Time = 103

DILUPBiCGStab:  Solving for h, Initial residual = 0.01249247, Final residual = 1.754344e-05, No Iterations 1
GAMG:  Solving for p_rgh, Initial residual = 0.0712407, Final residual = 0.000179863, No Iterations 2
time step continuity errors : sum local = 5.310507e-05, global = 8.873632e-06, cumulative = -0.02770329
rho min/max : 1.201595 1.201665
DILUPBiCGStab:  Solving for epsilon, Initial residual = 0.1766392, Final residual = 2.579676e-14, No Iterations 1
bounding epsilon, min: -1.637501e-10 max: 1e-06 average: 3.832566e-11
DILUPBiCGStab:  Solving for k, Initial residual = 0.2340156, Final residual = 1.201082e-08, No Iterations 1
bounding k, min: 0 max: 1.447414e-12 average: 1.503999e-15
ExecutionTime = 13.13 s  ClockTime = 13 s

Time = 104

DILUPBiCGStab:  Solving for h, Initial residual = 0.01189521, Final residual = 1.772393e-05, No Iterations 1
GAMG:  Solving for p_rgh, Initial residual = 0.06904251, Final residual = 0.0001782585, No Iterations 2
time step continuity errors : sum local = 5.358871e-05, global = 5.753904e-06, cumulative = -0.02769754
rho min/max : 1.201596 1.201665
DILUPBiCGStab:  Solving for epsilon, Initial residual = 0.1765292, Final residual = 5.072987e-16, No Iterations 1
bounding epsilon, min: -6.023586e-11 max: 1e-06 average: 3.666676e-11
DILUPBiCGStab:  Solving for k, Initial residual = 0.2101855, Final residual = 1.494809e-08, No Iterations 1
bounding k, min: 0 max: 1.676643e-12 average: 1.587444e-15
ExecutionTime = 13.21 s  ClockTime = 13 s

Time = 105

DILUPBiCGStab:  Solving for h, Initial residual = 0.01203471, Final residual = 1.773939e-05, No Iterations 1
GAMG:  Solving for p_rgh, Initial residual = 0.07175075, Final residual = 0.0001674088, No Iterations 2
time step continuity errors : sum local = 4.910189e-05, global = 9.726931e-06, cumulative = -0.02768781
rho min/max : 1.201596 1.201665
DILUPBiCGStab:  Solving for epsilon, Initial residual = 0.1765367, Final residual = 1.31465e-15, No Iterations 1
bounding epsilon, min: -3.352758e-10 max: 1e-06 average: 3.035366e-11
DILUPBiCGStab:  Solving for k, Initial residual = 0.1881936, Final residual = 1.195521e-08, No Iterations 1
bounding k, min: 0 max: 1.929004e-12 average: 1.682734e-15
ExecutionTime = 13.3 s  ClockTime = 13 s

Time = 106

DILUPBiCGStab:  Solving for h, Initial residual = 0.01146179, Final residual = 1.710004e-05, No Iterations 1
GAMG:  Solving for p_rgh, Initial residual = 0.07376627, Final residual = 0.0001836207, No Iterations 2
time step continuity errors : sum local = 5.27969e-05, global = 1.571082e-05, cumulative = -0.0276721
rho min/max : 1.201596 1.201665
DILUPBiCGStab:  Solving for epsilon, Initial residual = 0.176525, Final residual = 1.309343e-15, No Iterations 1
bounding epsilon, min: -1.744239e-10 max: 1e-06 average: 3.685931e-11
DILUPBiCGStab:  Solving for k, Initial residual = 0.1680979, Final residual = 1.154701e-08, No Iterations 1
bounding k, min: 0 max: 2.204004e-12 average: 1.792518e-15
ExecutionTime = 13.4 s  ClockTime = 13 s

Time = 107

DILUPBiCGStab:  Solving for h, Initial residual = 0.01144789, Final residual = 1.719115e-05, No Iterations 1
GAMG:  Solving for p_rgh, Initial residual = 0.07193683, Final residual = 0.0001499895, No Iterations 2
time step continuity errors : sum local = 4.258849e-05, global = 1.098378e-05, cumulative = -0.02766111
rho min/max : 1.201596 1.201665
DILUPBiCGStab:  Solving for epsilon, Initial residual = 0.1765176, Final residual = 8.053884e-16, No Iterations 1
bounding epsilon, min: -7.7034e-11 max: 1e-06 average: 3.721249e-11
DILUPBiCGStab:  Solving for k, Initial residual = 0.1496857, Final residual = 1.463789e-08, No Iterations 1
bounding k, min: 0 max: 2.540072e-12 average: 1.919021e-15
ExecutionTime = 13.49 s  ClockTime = 13 s

Time = 108

[...]
bounding k, min: -1.761118e-05 max: 7.884176 average: 0.0844318
ExecutionTime = 133.16 s  ClockTime = 133 s

Time = 974

DILUPBiCGStab:  Solving for h, Initial residual = 9.177075e-05, Final residual = 3.603225e-07, No Iterations 1
GAMG:  Solving for p_rgh, Initial residual = 0.006075735, Final residual = 2.881683e-05, No Iterations 3
time step continuity errors : sum local = 9.788682e-07, global = -5.007835e-08, cumulative = -0.02689905
rho min/max : 1.201583 1.201669
DILUPBiCGStab:  Solving for epsilon, Initial residual = 3.638504e-05, Final residual = 2.414156e-08, No Iterations 1
DILUPBiCGStab:  Solving for k, Initial residual = 7.780869e-05, Final residual = 4.062695e-07, No Iterations 1
bounding k, min: -1.627779e-05 max: 7.881663 average: 0.08444431
ExecutionTime = 133.24 s  ClockTime = 133 s

Time = 975

DILUPBiCGStab:  Solving for h, Initial residual = 9.15819e-05, Final residual = 3.600754e-07, No Iterations 1
GAMG:  Solving for p_rgh, Initial residual = 0.007026011, Final residual = 2.550031e-05, No Iterations 3
time step continuity errors : sum local = 8.655942e-07, global = -8.457142e-08, cumulative = -0.02689913
rho min/max : 1.201583 1.201669
DILUPBiCGStab:  Solving for epsilon, Initial residual = 3.633069e-05, Final residual = 2.410304e-08, No Iterations 1
DILUPBiCGStab:  Solving for k, Initial residual = 7.764682e-05, Final residual = 4.050871e-07, No Iterations 1
bounding k, min: -1.866689e-05 max: 7.879136 average: 0.08445667
ExecutionTime = 133.34 s  ClockTime = 133 s

Time = 976

DILUPBiCGStab:  Solving for h, Initial residual = 9.138765e-05, Final residual = 3.597726e-07, No Iterations 1
GAMG:  Solving for p_rgh, Initial residual = 0.006626134, Final residual = 3.810394e-05, No Iterations 3
time step continuity errors : sum local = 1.291856e-06, global = -9.443638e-08, cumulative = -0.02689923
rho min/max : 1.201583 1.201669
DILUPBiCGStab:  Solving for epsilon, Initial residual = 3.628032e-05, Final residual = 2.406895e-08, No Iterations 1
DILUPBiCGStab:  Solving for k, Initial residual = 7.748582e-05, Final residual = 4.039017e-07, No Iterations 1
bounding k, min: -1.536137e-05 max: 7.876594 average: 0.08446888
ExecutionTime = 133.43 s  ClockTime = 133 s

Time = 977

DILUPBiCGStab:  Solving for h, Initial residual = 9.119335e-05, Final residual = 3.594241e-07, No Iterations 1
GAMG:  Solving for p_rgh, Initial residual = 0.005647531, Final residual = 4.141249e-05, No Iterations 3
time step continuity errors : sum local = 1.402768e-06, global = -3.651939e-08, cumulative = -0.02689926
rho min/max : 1.201583 1.201669
DILUPBiCGStab:  Solving for epsilon, Initial residual = 3.623096e-05, Final residual = 2.403122e-08, No Iterations 1
DILUPBiCGStab:  Solving for k, Initial residual = 7.732565e-05, Final residual = 4.027144e-07, No Iterations 1
bounding k, min: -1.791517e-05 max: 7.874037 average: 0.08448095
ExecutionTime = 133.51 s  ClockTime = 133 s

Time = 978

DILUPBiCGStab:  Solving for h, Initial residual = 9.100184e-05, Final residual = 3.59106e-07, No Iterations 1
GAMG:  Solving for p_rgh, Initial residual = 0.005868302, Final residual = 2.790827e-05, No Iterations 3
time step continuity errors : sum local = 9.444467e-07, global = -3.772751e-08, cumulative = -0.0268993
rho min/max : 1.201583 1.201669
DILUPBiCGStab:  Solving for epsilon, Initial residual = 3.61825e-05, Final residual = 2.399336e-08, No Iterations 1
bounding epsilon, min: -3.175167e-07 max: 113.8482 average: 0.5855413
DILUPBiCGStab:  Solving for k, Initial residual = 7.71664e-05, Final residual = 4.01525e-07, No Iterations 1
bounding k, min: -1.635869e-05 max: 7.871466 average: 0.08449286
ExecutionTime = 133.6 s  ClockTime = 133 s

Time = 979

DILUPBiCGStab:  Solving for h, Initial residual = 9.081071e-05, Final residual = 3.588112e-07, No Iterations 1
GAMG:  Solving for p_rgh, Initial residual = 0.005602665, Final residual = 3.595944e-05, No Iterations 3
time step continuity errors : sum local = 1.213864e-06, global = -6.682778e-08, cumulative = -0.02689937
rho min/max : 1.201583 1.201669
DILUPBiCGStab:  Solving for epsilon, Initial residual = 3.613844e-05, Final residual = 2.39564e-08, No Iterations 1
DILUPBiCGStab:  Solving for k, Initial residual = 7.700793e-05, Final residual = 4.003314e-07, No Iterations 1
bounding k, min: -1.969131e-05 max: 7.86888 average: 0.08450463
ExecutionTime = 133.68 s  ClockTime = 133 s

Time = 980

DILUPBiCGStab:  Solving for h, Initial residual = 9.061869e-05, Final residual = 3.584777e-07, No Iterations 1
GAMG:  Solving for p_rgh, Initial residual = 0.006207932, Final residual = 3.138298e-05, No Iterations 3
time step continuity errors : sum local = 1.059761e-06, global = -8.764946e-08, cumulative = -0.02689946
rho min/max : 1.201583 1.201669
DILUPBiCGStab:  Solving for epsilon, Initial residual = 3.609775e-05, Final residual = 2.390911e-08, No Iterations 1
bounding epsilon, min: -3.281108e-08 max: 113.7619 average: 0.5852075
DILUPBiCGStab:  Solving for k, Initial residual = 7.685052e-05, Final residual = 3.991372e-07, No Iterations 1
bounding k, min: -1.430441e-05 max: 7.86628 average: 0.08451625
ExecutionTime = 134.27 s  ClockTime = 134 s

Time = 981

DILUPBiCGStab:  Solving for h, Initial residual = 9.042787e-05, Final residual = 3.581563e-07, No Iterations 1
GAMG:  Solving for p_rgh, Initial residual = 0.006711458, Final residual = 4.194573e-05, No Iterations 3
time step continuity errors : sum local = 1.414916e-06, global = -1.310989e-07, cumulative = -0.02689959
rho min/max : 1.201583 1.201669
DILUPBiCGStab:  Solving for epsilon, Initial residual = 3.606066e-05, Final residual = 2.387192e-08, No Iterations 1
bounding epsilon, min: -6.161431e-07 max: 113.7184 average: 0.5850384
DILUPBiCGStab:  Solving for k, Initial residual = 7.66941e-05, Final residual = 3.979431e-07, No Iterations 1
bounding k, min: -1.453019e-05 max: 7.863666 average: 0.08452772
ExecutionTime = 134.37 s  ClockTime = 134 s

Time = 982

DILUPBiCGStab:  Solving for h, Initial residual = 9.023841e-05, Final residual = 3.57866e-07, No Iterations 1
GAMG:  Solving for p_rgh, Initial residual = 0.006345198, Final residual = 4.6066e-05, No Iterations 3
time step continuity errors : sum local = 1.552917e-06, global = -2.290016e-08, cumulative = -0.02689961
rho min/max : 1.201583 1.201669
DILUPBiCGStab:  Solving for epsilon, Initial residual = 3.602397e-05, Final residual = 2.382679e-08, No Iterations 1
bounding epsilon, min: -2.846126e-06 max: 113.6745 average: 0.5848677
DILUPBiCGStab:  Solving for k, Initial residual = 7.653848e-05, Final residual = 3.967473e-07, No Iterations 1
bounding k, min: -1.736341e-05 max: 7.861037 average: 0.08453904
ExecutionTime = 134.46 s  ClockTime = 134 s

Time = 983

DILUPBiCGStab:  Solving for h, Initial residual = 9.004873e-05, Final residual = 3.575479e-07, No Iterations 1
GAMG:  Solving for p_rgh, Initial residual = 0.006557128, Final residual = 4.338792e-05, No Iterations 3
time step continuity errors : sum local = 1.458975e-06, global = -2.718441e-08, cumulative = -0.02689964
rho min/max : 1.201583 1.201669
DILUPBiCGStab:  Solving for epsilon, Initial residual = 3.598732e-05, Final residual = 2.379207e-08, No Iterations 1
bounding epsilon, min: -4.913418e-07 max: 113.6303 average: 0.5846956
DILUPBiCGStab:  Solving for k, Initial residual = 7.638367e-05, Final residual = 3.955564e-07, No Iterations 1
bounding k, min: -1.886769e-05 max: 7.858394 average: 0.08455022
ExecutionTime = 134.56 s  ClockTime = 134 s

Time = 984

DILUPBiCGStab:  Solving for h, Initial residual = 8.986238e-05, Final residual = 3.572714e-07, No Iterations 1
GAMG:  Solving for p_rgh, Initial residual = 0.005707739, Final residual = 3.56793e-05, No Iterations 3
time step continuity errors : sum local = 1.196881e-06, global = -6.095034e-08, cumulative = -0.0268997
rho min/max : 1.201583 1.201669
DILUPBiCGStab:  Solving for epsilon, Initial residual = 3.595042e-05, Final residual = 2.375663e-08, No Iterations 1
bounding epsilon, min: -1.670354e-07 max: 113.5858 average: 0.5845221
DILUPBiCGStab:  Solving for k, Initial residual = 7.623022e-05, Final residual = 3.943675e-07, No Iterations 1
bounding k, min: -1.680204e-05 max: 7.855737 average: 0.08456125
ExecutionTime = 134.67 s  ClockTime = 134 s

Time = 985

DILUPBiCGStab:  Solving for h, Initial residual = 8.967424e-05, Final residual = 3.569889e-07, No Iterations 1
GAMG:  Solving for p_rgh, Initial residual = 0.005708013, Final residual = 3.574169e-05, No Iterations 3
time step continuity errors : sum local = 1.199226e-06, global = -8.131633e-08, cumulative = -0.02689978
rho min/max : 1.201583 1.201669
DILUPBiCGStab:  Solving for epsilon, Initial residual = 3.591489e-05, Final residual = 2.371927e-08, No Iterations 1
bounding epsilon, min: -1.874342e-07 max: 113.541 average: 0.5843471
DILUPBiCGStab:  Solving for k, Initial residual = 7.607793e-05, Final residual = 3.931838e-07, No Iterations 1
bounding k, min: -1.703413e-05 max: 7.853066 average: 0.08457215
ExecutionTime = 134.76 s  ClockTime = 135 s

Time = 986

DILUPBiCGStab:  Solving for h, Initial residual = 8.948454e-05, Final residual = 3.566302e-07, No Iterations 1
GAMG:  Solving for p_rgh, Initial residual = 0.005317062, Final residual = 4.975348e-05, No Iterations 3
time step continuity errors : sum local = 1.668345e-06, global = -8.730067e-08, cumulative = -0.02689987
rho min/max : 1.201583 1.201669
DILUPBiCGStab:  Solving for epsilon, Initial residual = 3.588126e-05, Final residual = 2.368036e-08, No Iterations 1
bounding epsilon, min: -5.41641e-07 max: 113.496 average: 0.5841706
DILUPBiCGStab:  Solving for k, Initial residual = 7.592679e-05, Final residual = 3.920095e-07, No Iterations 1
bounding k, min: -3.53215e-05 max: 7.850381 average: 0.0845829
ExecutionTime = 134.85 s  ClockTime = 135 s

Time = 987

DILUPBiCGStab:  Solving for h, Initial residual = 8.929592e-05, Final residual = 3.562875e-07, No Iterations 1
GAMG:  Solving for p_rgh, Initial residual = 0.005387182, Final residual = 5.249782e-05, No Iterations 3
time step continuity errors : sum local = 1.75752e-06, global = -9.317104e-08, cumulative = -0.02689996
rho min/max : 1.201583 1.201669
DILUPBiCGStab:  Solving for epsilon, Initial residual = 3.584767e-05, Final residual = 2.363733e-08, No Iterations 1
bounding epsilon, min: -2.192895e-07 max: 113.4506 average: 0.5839927
DILUPBiCGStab:  Solving for k, Initial residual = 7.577676e-05, Final residual = 3.908436e-07, No Iterations 1
bounding k, min: -3.161324e-05 max: 7.847682 average: 0.08459352
ExecutionTime = 134.94 s  ClockTime = 135 s

Time = 988

DILUPBiCGStab:  Solving for h, Initial residual = 8.911133e-05, Final residual = 3.560126e-07, No Iterations 1
GAMG:  Solving for p_rgh, Initial residual = 0.005941956, Final residual = 4.765644e-05, No Iterations 3
time step continuity errors : sum local = 1.593862e-06, global = 4.001985e-08, cumulative = -0.02689992
rho min/max : 1.201583 1.201669
DILUPBiCGStab:  Solving for epsilon, Initial residual = 3.581422e-05, Final residual = 2.359497e-08, No Iterations 1
bounding epsilon, min: -3.138365e-06 max: 113.405 average: 0.5838133
DILUPBiCGStab:  Solving for k, Initial residual = 7.562761e-05, Final residual = 3.896773e-07, No Iterations 1
bounding k, min: -1.819296e-05 max: 7.844968 average: 0.084604
ExecutionTime = 135.03 s  ClockTime = 135 s

Time = 989

DILUPBiCGStab:  Solving for h, Initial residual = 8.892727e-05, Final residual = 3.557464e-07, No Iterations 1
GAMG:  Solving for p_rgh, Initial residual = 0.006018331, Final residual = 2.916403e-05, No Iterations 3
time step continuity errors : sum local = 9.731038e-07, global = -9.439171e-08, cumulative = -0.02690001
rho min/max : 1.201583 1.201669
DILUPBiCGStab:  Solving for epsilon, Initial residual = 3.578046e-05, Final residual = 2.354395e-08, No Iterations 1
bounding epsilon, min: -1.327113e-06 max: 113.3591 average: 0.5836325
DILUPBiCGStab:  Solving for k, Initial residual = 7.54794e-05, Final residual = 3.885241e-07, No Iterations 1
bounding k, min: -1.670037e-05 max: 7.842241 average: 0.08461435
ExecutionTime = 135.11 s  ClockTime = 135 s

Time = 990

DILUPBiCGStab:  Solving for h, Initial residual = 8.873952e-05, Final residual = 3.553905e-07, No Iterations 1
GAMG:  Solving for p_rgh, Initial residual = 0.00669525, Final residual = 3.553161e-05, No Iterations 3
time step continuity errors : sum local = 1.184996e-06, global = -2.711978e-08, cumulative = -0.02690004
rho min/max : 1.201583 1.201669
DILUPBiCGStab:  Solving for epsilon, Initial residual = 3.574673e-05, Final residual = 2.350955e-08, No Iterations 1
bounding epsilon, min: -8.111397e-07 max: 113.3128 average: 0.5834502
DILUPBiCGStab:  Solving for k, Initial residual = 7.533183e-05, Final residual = 3.873713e-07, No Iterations 1
bounding k, min: -1.759297e-05 max: 7.839501 average: 0.08462455
ExecutionTime = 135.7 s  ClockTime = 135 s

Time = 991

DILUPBiCGStab:  Solving for h, Initial residual = 8.855516e-05, Final residual = 3.550715e-07, No Iterations 1
GAMG:  Solving for p_rgh, Initial residual = 0.007599431, Final residual = 5.837487e-05, No Iterations 3
time step continuity errors : sum local = 1.942206e-06, global = -1.007382e-07, cumulative = -0.02690014
rho min/max : 1.201583 1.201669
DILUPBiCGStab:  Solving for epsilon, Initial residual = 3.571282e-05, Final residual = 2.347605e-08, No Iterations 1
DILUPBiCGStab:  Solving for k, Initial residual = 7.518514e-05, Final residual = 3.8622e-07, No Iterations 1
bounding k, min: -1.631577e-05 max: 7.836746 average: 0.08463462
ExecutionTime = 135.8 s  ClockTime = 136 s

Time = 992

DILUPBiCGStab:  Solving for h, Initial residual = 8.837113e-05, Final residual = 3.547691e-07, No Iterations 1
GAMG:  Solving for p_rgh, Initial residual = 0.006412745, Final residual = 5.992452e-05, No Iterations 3
time step continuity errors : sum local = 1.992379e-06, global = -1.390507e-07, cumulative = -0.02690028
rho min/max : 1.201583 1.201669
DILUPBiCGStab:  Solving for epsilon, Initial residual = 3.568115e-05, Final residual = 2.344109e-08, No Iterations 1
DILUPBiCGStab:  Solving for k, Initial residual = 7.503917e-05, Final residual = 3.850687e-07, No Iterations 1
bounding k, min: -1.201665e-05 max: 7.833978 average: 0.08464455
ExecutionTime = 135.89 s  ClockTime = 136 s

Time = 993

DILUPBiCGStab:  Solving for h, Initial residual = 8.81882e-05, Final residual = 3.544879e-07, No Iterations 1
GAMG:  Solving for p_rgh, Initial residual = 0.008195286, Final residual = 6.561066e-05, No Iterations 4
time step continuity errors : sum local = 2.185823e-06, global = -1.162899e-07, cumulative = -0.0269004
rho min/max : 1.201583 1.201669
DILUPBiCGStab:  Solving for epsilon, Initial residual = 3.564944e-05, Final residual = 2.34083e-08, No Iterations 1
DILUPBiCGStab:  Solving for k, Initial residual = 7.489387e-05, Final residual = 3.839174e-07, No Iterations 1
bounding k, min: -1.460235e-05 max: 7.831196 average: 0.08465436
ExecutionTime = 135.98 s  ClockTime = 136 s

Time = 994

DILUPBiCGStab:  Solving for h, Initial residual = 8.800711e-05, Final residual = 3.542201e-07, No Iterations 1
GAMG:  Solving for p_rgh, Initial residual = 0.00714838, Final residual = 3.393454e-05, No Iterations 3
time step continuity errors : sum local = 1.12633e-06, global = 6.201543e-08, cumulative = -0.02690034
rho min/max : 1.201583 1.201669
DILUPBiCGStab:  Solving for epsilon, Initial residual = 3.561912e-05, Final residual = 2.336882e-08, No Iterations 1
DILUPBiCGStab:  Solving for k, Initial residual = 7.474944e-05, Final residual = 3.827664e-07, No Iterations 1
bounding k, min: -1.741055e-05 max: 7.8284 average: 0.08466404
ExecutionTime = 136.08 s  ClockTime = 136 s

Time = 995

DILUPBiCGStab:  Solving for h, Initial residual = 8.782236e-05, Final residual = 3.538665e-07, No Iterations 1
GAMG:  Solving for p_rgh, Initial residual = 0.007668831, Final residual = 4.330562e-05, No Iterations 4
time step continuity errors : sum local = 1.431041e-06, global = -7.942386e-08, cumulative = -0.02690041
rho min/max : 1.201583 1.201669
DILUPBiCGStab:  Solving for epsilon, Initial residual = 3.558869e-05, Final residual = 2.333785e-08, No Iterations 1
DILUPBiCGStab:  Solving for k, Initial residual = 7.460568e-05, Final residual = 3.816143e-07, No Iterations 1
bounding k, min: -1.369366e-05 max: 7.825591 average: 0.08467358
ExecutionTime = 136.17 s  ClockTime = 136 s

Time = 996

DILUPBiCGStab:  Solving for h, Initial residual = 8.764041e-05, Final residual = 3.535617e-07, No Iterations 1
GAMG:  Solving for p_rgh, Initial residual = 0.007034333, Final residual = 4.499907e-05, No Iterations 4
time step continuity errors : sum local = 1.486146e-06, global = -6.103167e-08, cumulative = -0.02690048
rho min/max : 1.201583 1.201669
DILUPBiCGStab:  Solving for epsilon, Initial residual = 3.555814e-05, Final residual = 2.330708e-08, No Iterations 1
DILUPBiCGStab:  Solving for k, Initial residual = 7.446273e-05, Final residual = 3.804625e-07, No Iterations 1
bounding k, min: -1.712697e-05 max: 7.822769 average: 0.08468298
ExecutionTime = 136.27 s  ClockTime = 136 s

Time = 997

DILUPBiCGStab:  Solving for h, Initial residual = 8.745617e-05, Final residual = 3.532365e-07, No Iterations 1
GAMG:  Solving for p_rgh, Initial residual = 0.006528242, Final residual = 3.58127e-05, No Iterations 3
time step continuity errors : sum local = 1.183655e-06, global = -9.527384e-08, cumulative = -0.02690057
rho min/max : 1.201583 1.201669
DILUPBiCGStab:  Solving for epsilon, Initial residual = 3.552744e-05, Final residual = 2.32766e-08, No Iterations 1
DILUPBiCGStab:  Solving for k, Initial residual = 7.432053e-05, Final residual = 3.793116e-07, No Iterations 1
bounding k, min: -1.333392e-05 max: 7.819933 average: 0.08469225
ExecutionTime = 136.36 s  ClockTime = 136 s

Time = 998

DILUPBiCGStab:  Solving for h, Initial residual = 8.72747e-05, Final residual = 3.528705e-07, No Iterations 1
GAMG:  Solving for p_rgh, Initial residual = 0.006721458, Final residual = 4.660287e-05, No Iterations 4
time step continuity errors : sum local = 1.536733e-06, global = -6.183924e-08, cumulative = -0.02690063
rho min/max : 1.201583 1.201669
DILUPBiCGStab:  Solving for epsilon, Initial residual = 3.549659e-05, Final residual = 2.32403e-08, No Iterations 1
DILUPBiCGStab:  Solving for k, Initial residual = 7.417936e-05, Final residual = 3.781663e-07, No Iterations 1
bounding k, min: -1.799482e-05 max: 7.817084 average: 0.08470138
ExecutionTime = 136.47 s  ClockTime = 136 s

Time = 999

DILUPBiCGStab:  Solving for h, Initial residual = 8.709319e-05, Final residual = 3.525546e-07, No Iterations 1
GAMG:  Solving for p_rgh, Initial residual = 0.006282181, Final residual = 3.461473e-05, No Iterations 4
time step continuity errors : sum local = 1.141678e-06, global = -7.047029e-09, cumulative = -0.02690064
rho min/max : 1.201583 1.201669
DILUPBiCGStab:  Solving for epsilon, Initial residual = 3.546593e-05, Final residual = 2.320574e-08, No Iterations 1
DILUPBiCGStab:  Solving for k, Initial residual = 7.403972e-05, Final residual = 3.770228e-07, No Iterations 1
bounding k, min: -1.180988e-05 max: 7.814221 average: 0.08471037
ExecutionTime = 136.56 s  ClockTime = 136 s

Time = 1000

DILUPBiCGStab:  Solving for h, Initial residual = 8.691337e-05, Final residual = 3.522334e-07, No Iterations 1
GAMG:  Solving for p_rgh, Initial residual = 0.007186889, Final residual = 2.986973e-05, No Iterations 3
time step continuity errors : sum local = 9.832577e-07, global = -1.023938e-07, cumulative = -0.02690074
rho min/max : 1.201583 1.201669
DILUPBiCGStab:  Solving for epsilon, Initial residual = 3.543511e-05, Final residual = 2.317678e-08, No Iterations 1
DILUPBiCGStab:  Solving for k, Initial residual = 7.390114e-05, Final residual = 3.75886e-07, No Iterations 1
bounding k, min: -1.095726e-05 max: 7.811345 average: 0.08471922
ExecutionTime = 137.16 s  ClockTime = 137 s

End

